*SPEF "ieee 1481-1999"
*DESIGN "analog_io_control"
*DATE "11:11:11 Fri 11 11, 1111"
*VENDOR "OpenRCX"
*PROGRAM "Parallel Extraction"
*VERSION "1.0"
*DESIGN_FLOW "NAME_SCOPE LOCAL" "PIN_CAP NONE"
*DIVIDER /
*DELIMITER :
*BUS_DELIMITER []
*T_UNIT 1 NS
*C_UNIT 1 PF
*R_UNIT 1 OHM
*L_UNIT 1 HENRY

*NAME_MAP
*1 net1
*2 net2
*3 net3
*4 net4
*5 net5
*6 net6
*7 FILLER_0_0_109
*8 FILLER_0_0_113
*9 FILLER_0_0_125
*10 FILLER_0_0_137
*11 FILLER_0_0_141
*12 FILLER_0_0_145
*13 FILLER_0_0_15
*14 FILLER_0_0_27
*15 FILLER_0_0_29
*16 FILLER_0_0_3
*17 FILLER_0_0_41
*18 FILLER_0_0_53
*19 FILLER_0_0_57
*20 FILLER_0_0_69
*21 FILLER_0_0_81
*22 FILLER_0_0_85
*23 FILLER_0_0_97
*24 FILLER_0_10_109
*25 FILLER_0_10_121
*26 FILLER_0_10_133
*27 FILLER_0_10_139
*28 FILLER_0_10_141
*29 FILLER_0_10_145
*30 FILLER_0_10_15
*31 FILLER_0_10_27
*32 FILLER_0_10_29
*33 FILLER_0_10_3
*34 FILLER_0_10_41
*35 FILLER_0_10_53
*36 FILLER_0_10_65
*37 FILLER_0_10_77
*38 FILLER_0_10_83
*39 FILLER_0_10_85
*40 FILLER_0_10_97
*41 FILLER_0_11_105
*42 FILLER_0_11_111
*43 FILLER_0_11_113
*44 FILLER_0_11_125
*45 FILLER_0_11_137
*46 FILLER_0_11_145
*47 FILLER_0_11_15
*48 FILLER_0_11_27
*49 FILLER_0_11_3
*50 FILLER_0_11_39
*51 FILLER_0_11_51
*52 FILLER_0_11_55
*53 FILLER_0_11_57
*54 FILLER_0_11_69
*55 FILLER_0_11_81
*56 FILLER_0_11_93
*57 FILLER_0_12_109
*58 FILLER_0_12_121
*59 FILLER_0_12_133
*60 FILLER_0_12_139
*61 FILLER_0_12_141
*62 FILLER_0_12_145
*63 FILLER_0_12_15
*64 FILLER_0_12_27
*65 FILLER_0_12_29
*66 FILLER_0_12_3
*67 FILLER_0_12_41
*68 FILLER_0_12_53
*69 FILLER_0_12_65
*70 FILLER_0_12_77
*71 FILLER_0_12_83
*72 FILLER_0_12_85
*73 FILLER_0_12_97
*74 FILLER_0_13_105
*75 FILLER_0_13_111
*76 FILLER_0_13_113
*77 FILLER_0_13_125
*78 FILLER_0_13_137
*79 FILLER_0_13_145
*80 FILLER_0_13_15
*81 FILLER_0_13_27
*82 FILLER_0_13_3
*83 FILLER_0_13_39
*84 FILLER_0_13_51
*85 FILLER_0_13_55
*86 FILLER_0_13_57
*87 FILLER_0_13_69
*88 FILLER_0_13_81
*89 FILLER_0_13_93
*90 FILLER_0_14_109
*91 FILLER_0_14_121
*92 FILLER_0_14_133
*93 FILLER_0_14_139
*94 FILLER_0_14_141
*95 FILLER_0_14_145
*96 FILLER_0_14_15
*97 FILLER_0_14_27
*98 FILLER_0_14_29
*99 FILLER_0_14_3
*100 FILLER_0_14_41
*101 FILLER_0_14_53
*102 FILLER_0_14_65
*103 FILLER_0_14_77
*104 FILLER_0_14_83
*105 FILLER_0_14_85
*106 FILLER_0_14_97
*107 FILLER_0_15_105
*108 FILLER_0_15_111
*109 FILLER_0_15_113
*110 FILLER_0_15_125
*111 FILLER_0_15_137
*112 FILLER_0_15_145
*113 FILLER_0_15_15
*114 FILLER_0_15_27
*115 FILLER_0_15_3
*116 FILLER_0_15_39
*117 FILLER_0_15_51
*118 FILLER_0_15_55
*119 FILLER_0_15_57
*120 FILLER_0_15_69
*121 FILLER_0_15_81
*122 FILLER_0_15_93
*123 FILLER_0_16_109
*124 FILLER_0_16_121
*125 FILLER_0_16_133
*126 FILLER_0_16_139
*127 FILLER_0_16_141
*128 FILLER_0_16_145
*129 FILLER_0_16_15
*130 FILLER_0_16_27
*131 FILLER_0_16_29
*132 FILLER_0_16_3
*133 FILLER_0_16_41
*134 FILLER_0_16_53
*135 FILLER_0_16_65
*136 FILLER_0_16_77
*137 FILLER_0_16_83
*138 FILLER_0_16_85
*139 FILLER_0_16_97
*140 FILLER_0_17_105
*141 FILLER_0_17_111
*142 FILLER_0_17_113
*143 FILLER_0_17_125
*144 FILLER_0_17_137
*145 FILLER_0_17_145
*146 FILLER_0_17_15
*147 FILLER_0_17_27
*148 FILLER_0_17_3
*149 FILLER_0_17_39
*150 FILLER_0_17_51
*151 FILLER_0_17_55
*152 FILLER_0_17_57
*153 FILLER_0_17_69
*154 FILLER_0_17_81
*155 FILLER_0_17_93
*156 FILLER_0_18_109
*157 FILLER_0_18_121
*158 FILLER_0_18_133
*159 FILLER_0_18_139
*160 FILLER_0_18_141
*161 FILLER_0_18_15
*162 FILLER_0_18_27
*163 FILLER_0_18_29
*164 FILLER_0_18_3
*165 FILLER_0_18_41
*166 FILLER_0_18_53
*167 FILLER_0_18_65
*168 FILLER_0_18_77
*169 FILLER_0_18_83
*170 FILLER_0_18_85
*171 FILLER_0_18_97
*172 FILLER_0_19_105
*173 FILLER_0_19_111
*174 FILLER_0_19_113
*175 FILLER_0_19_125
*176 FILLER_0_19_137
*177 FILLER_0_19_145
*178 FILLER_0_19_15
*179 FILLER_0_19_27
*180 FILLER_0_19_3
*181 FILLER_0_19_39
*182 FILLER_0_19_51
*183 FILLER_0_19_55
*184 FILLER_0_19_57
*185 FILLER_0_19_69
*186 FILLER_0_19_81
*187 FILLER_0_19_93
*188 FILLER_0_1_105
*189 FILLER_0_1_111
*190 FILLER_0_1_113
*191 FILLER_0_1_125
*192 FILLER_0_1_137
*193 FILLER_0_1_145
*194 FILLER_0_1_15
*195 FILLER_0_1_27
*196 FILLER_0_1_3
*197 FILLER_0_1_39
*198 FILLER_0_1_51
*199 FILLER_0_1_55
*200 FILLER_0_1_57
*201 FILLER_0_1_69
*202 FILLER_0_1_81
*203 FILLER_0_1_93
*204 FILLER_0_20_109
*205 FILLER_0_20_121
*206 FILLER_0_20_133
*207 FILLER_0_20_139
*208 FILLER_0_20_141
*209 FILLER_0_20_145
*210 FILLER_0_20_15
*211 FILLER_0_20_27
*212 FILLER_0_20_29
*213 FILLER_0_20_3
*214 FILLER_0_20_41
*215 FILLER_0_20_53
*216 FILLER_0_20_65
*217 FILLER_0_20_77
*218 FILLER_0_20_83
*219 FILLER_0_20_85
*220 FILLER_0_20_97
*221 FILLER_0_21_105
*222 FILLER_0_21_111
*223 FILLER_0_21_113
*224 FILLER_0_21_125
*225 FILLER_0_21_137
*226 FILLER_0_21_145
*227 FILLER_0_21_15
*228 FILLER_0_21_27
*229 FILLER_0_21_3
*230 FILLER_0_21_39
*231 FILLER_0_21_51
*232 FILLER_0_21_55
*233 FILLER_0_21_57
*234 FILLER_0_21_69
*235 FILLER_0_21_81
*236 FILLER_0_21_93
*237 FILLER_0_22_109
*238 FILLER_0_22_121
*239 FILLER_0_22_133
*240 FILLER_0_22_139
*241 FILLER_0_22_141
*242 FILLER_0_22_145
*243 FILLER_0_22_15
*244 FILLER_0_22_27
*245 FILLER_0_22_29
*246 FILLER_0_22_3
*247 FILLER_0_22_41
*248 FILLER_0_22_53
*249 FILLER_0_22_65
*250 FILLER_0_22_77
*251 FILLER_0_22_83
*252 FILLER_0_22_85
*253 FILLER_0_22_97
*254 FILLER_0_23_105
*255 FILLER_0_23_111
*256 FILLER_0_23_113
*257 FILLER_0_23_125
*258 FILLER_0_23_137
*259 FILLER_0_23_145
*260 FILLER_0_23_15
*261 FILLER_0_23_27
*262 FILLER_0_23_3
*263 FILLER_0_23_39
*264 FILLER_0_23_51
*265 FILLER_0_23_55
*266 FILLER_0_23_57
*267 FILLER_0_23_69
*268 FILLER_0_23_81
*269 FILLER_0_23_93
*270 FILLER_0_24_109
*271 FILLER_0_24_121
*272 FILLER_0_24_133
*273 FILLER_0_24_139
*274 FILLER_0_24_141
*275 FILLER_0_24_145
*276 FILLER_0_24_15
*277 FILLER_0_24_27
*278 FILLER_0_24_29
*279 FILLER_0_24_3
*280 FILLER_0_24_41
*281 FILLER_0_24_53
*282 FILLER_0_24_65
*283 FILLER_0_24_77
*284 FILLER_0_24_83
*285 FILLER_0_24_85
*286 FILLER_0_24_97
*287 FILLER_0_25_105
*288 FILLER_0_25_111
*289 FILLER_0_25_113
*290 FILLER_0_25_125
*291 FILLER_0_25_137
*292 FILLER_0_25_145
*293 FILLER_0_25_15
*294 FILLER_0_25_27
*295 FILLER_0_25_3
*296 FILLER_0_25_39
*297 FILLER_0_25_51
*298 FILLER_0_25_55
*299 FILLER_0_25_57
*300 FILLER_0_25_69
*301 FILLER_0_25_81
*302 FILLER_0_25_93
*303 FILLER_0_26_109
*304 FILLER_0_26_121
*305 FILLER_0_26_133
*306 FILLER_0_26_139
*307 FILLER_0_26_141
*308 FILLER_0_26_145
*309 FILLER_0_26_15
*310 FILLER_0_26_27
*311 FILLER_0_26_29
*312 FILLER_0_26_3
*313 FILLER_0_26_41
*314 FILLER_0_26_53
*315 FILLER_0_26_65
*316 FILLER_0_26_77
*317 FILLER_0_26_83
*318 FILLER_0_26_85
*319 FILLER_0_26_97
*320 FILLER_0_27_105
*321 FILLER_0_27_111
*322 FILLER_0_27_113
*323 FILLER_0_27_125
*324 FILLER_0_27_137
*325 FILLER_0_27_145
*326 FILLER_0_27_15
*327 FILLER_0_27_27
*328 FILLER_0_27_3
*329 FILLER_0_27_39
*330 FILLER_0_27_51
*331 FILLER_0_27_55
*332 FILLER_0_27_57
*333 FILLER_0_27_69
*334 FILLER_0_27_81
*335 FILLER_0_27_93
*336 FILLER_0_28_109
*337 FILLER_0_28_121
*338 FILLER_0_28_133
*339 FILLER_0_28_139
*340 FILLER_0_28_141
*341 FILLER_0_28_145
*342 FILLER_0_28_15
*343 FILLER_0_28_27
*344 FILLER_0_28_29
*345 FILLER_0_28_3
*346 FILLER_0_28_41
*347 FILLER_0_28_53
*348 FILLER_0_28_65
*349 FILLER_0_28_77
*350 FILLER_0_28_83
*351 FILLER_0_28_85
*352 FILLER_0_28_97
*353 FILLER_0_29_105
*354 FILLER_0_29_111
*355 FILLER_0_29_113
*356 FILLER_0_29_125
*357 FILLER_0_29_137
*358 FILLER_0_29_145
*359 FILLER_0_29_15
*360 FILLER_0_29_27
*361 FILLER_0_29_3
*362 FILLER_0_29_39
*363 FILLER_0_29_51
*364 FILLER_0_29_55
*365 FILLER_0_29_57
*366 FILLER_0_29_69
*367 FILLER_0_29_81
*368 FILLER_0_29_93
*369 FILLER_0_2_109
*370 FILLER_0_2_121
*371 FILLER_0_2_133
*372 FILLER_0_2_139
*373 FILLER_0_2_141
*374 FILLER_0_2_145
*375 FILLER_0_2_15
*376 FILLER_0_2_27
*377 FILLER_0_2_29
*378 FILLER_0_2_3
*379 FILLER_0_2_41
*380 FILLER_0_2_53
*381 FILLER_0_2_65
*382 FILLER_0_2_77
*383 FILLER_0_2_83
*384 FILLER_0_2_85
*385 FILLER_0_2_97
*386 FILLER_0_30_109
*387 FILLER_0_30_121
*388 FILLER_0_30_133
*389 FILLER_0_30_139
*390 FILLER_0_30_141
*391 FILLER_0_30_145
*392 FILLER_0_30_15
*393 FILLER_0_30_27
*394 FILLER_0_30_29
*395 FILLER_0_30_3
*396 FILLER_0_30_41
*397 FILLER_0_30_53
*398 FILLER_0_30_65
*399 FILLER_0_30_77
*400 FILLER_0_30_83
*401 FILLER_0_30_85
*402 FILLER_0_30_97
*403 FILLER_0_31_105
*404 FILLER_0_31_111
*405 FILLER_0_31_113
*406 FILLER_0_31_125
*407 FILLER_0_31_137
*408 FILLER_0_31_145
*409 FILLER_0_31_15
*410 FILLER_0_31_27
*411 FILLER_0_31_3
*412 FILLER_0_31_39
*413 FILLER_0_31_51
*414 FILLER_0_31_55
*415 FILLER_0_31_57
*416 FILLER_0_31_69
*417 FILLER_0_31_81
*418 FILLER_0_31_93
*419 FILLER_0_32_109
*420 FILLER_0_32_121
*421 FILLER_0_32_133
*422 FILLER_0_32_139
*423 FILLER_0_32_141
*424 FILLER_0_32_145
*425 FILLER_0_32_15
*426 FILLER_0_32_27
*427 FILLER_0_32_29
*428 FILLER_0_32_3
*429 FILLER_0_32_41
*430 FILLER_0_32_53
*431 FILLER_0_32_65
*432 FILLER_0_32_77
*433 FILLER_0_32_83
*434 FILLER_0_32_85
*435 FILLER_0_32_97
*436 FILLER_0_33_105
*437 FILLER_0_33_111
*438 FILLER_0_33_113
*439 FILLER_0_33_125
*440 FILLER_0_33_137
*441 FILLER_0_33_15
*442 FILLER_0_33_27
*443 FILLER_0_33_3
*444 FILLER_0_33_39
*445 FILLER_0_33_51
*446 FILLER_0_33_55
*447 FILLER_0_33_57
*448 FILLER_0_33_69
*449 FILLER_0_33_81
*450 FILLER_0_33_93
*451 FILLER_0_34_109
*452 FILLER_0_34_121
*453 FILLER_0_34_133
*454 FILLER_0_34_139
*455 FILLER_0_34_141
*456 FILLER_0_34_145
*457 FILLER_0_34_15
*458 FILLER_0_34_27
*459 FILLER_0_34_29
*460 FILLER_0_34_3
*461 FILLER_0_34_41
*462 FILLER_0_34_53
*463 FILLER_0_34_65
*464 FILLER_0_34_77
*465 FILLER_0_34_83
*466 FILLER_0_34_85
*467 FILLER_0_34_97
*468 FILLER_0_35_105
*469 FILLER_0_35_111
*470 FILLER_0_35_113
*471 FILLER_0_35_125
*472 FILLER_0_35_137
*473 FILLER_0_35_145
*474 FILLER_0_35_15
*475 FILLER_0_35_27
*476 FILLER_0_35_3
*477 FILLER_0_35_39
*478 FILLER_0_35_51
*479 FILLER_0_35_55
*480 FILLER_0_35_57
*481 FILLER_0_35_69
*482 FILLER_0_35_81
*483 FILLER_0_35_93
*484 FILLER_0_36_109
*485 FILLER_0_36_121
*486 FILLER_0_36_133
*487 FILLER_0_36_139
*488 FILLER_0_36_141
*489 FILLER_0_36_145
*490 FILLER_0_36_15
*491 FILLER_0_36_27
*492 FILLER_0_36_29
*493 FILLER_0_36_3
*494 FILLER_0_36_41
*495 FILLER_0_36_53
*496 FILLER_0_36_65
*497 FILLER_0_36_77
*498 FILLER_0_36_83
*499 FILLER_0_36_85
*500 FILLER_0_36_97
*501 FILLER_0_37_105
*502 FILLER_0_37_111
*503 FILLER_0_37_113
*504 FILLER_0_37_125
*505 FILLER_0_37_137
*506 FILLER_0_37_145
*507 FILLER_0_37_15
*508 FILLER_0_37_27
*509 FILLER_0_37_3
*510 FILLER_0_37_39
*511 FILLER_0_37_51
*512 FILLER_0_37_55
*513 FILLER_0_37_57
*514 FILLER_0_37_69
*515 FILLER_0_37_81
*516 FILLER_0_37_93
*517 FILLER_0_38_109
*518 FILLER_0_38_121
*519 FILLER_0_38_133
*520 FILLER_0_38_139
*521 FILLER_0_38_141
*522 FILLER_0_38_145
*523 FILLER_0_38_15
*524 FILLER_0_38_27
*525 FILLER_0_38_29
*526 FILLER_0_38_3
*527 FILLER_0_38_41
*528 FILLER_0_38_53
*529 FILLER_0_38_65
*530 FILLER_0_38_77
*531 FILLER_0_38_83
*532 FILLER_0_38_85
*533 FILLER_0_38_97
*534 FILLER_0_39_105
*535 FILLER_0_39_111
*536 FILLER_0_39_113
*537 FILLER_0_39_125
*538 FILLER_0_39_137
*539 FILLER_0_39_145
*540 FILLER_0_39_15
*541 FILLER_0_39_27
*542 FILLER_0_39_3
*543 FILLER_0_39_39
*544 FILLER_0_39_51
*545 FILLER_0_39_55
*546 FILLER_0_39_57
*547 FILLER_0_39_69
*548 FILLER_0_39_81
*549 FILLER_0_39_93
*550 FILLER_0_3_105
*551 FILLER_0_3_111
*552 FILLER_0_3_113
*553 FILLER_0_3_125
*554 FILLER_0_3_137
*555 FILLER_0_3_145
*556 FILLER_0_3_15
*557 FILLER_0_3_27
*558 FILLER_0_3_3
*559 FILLER_0_3_39
*560 FILLER_0_3_51
*561 FILLER_0_3_55
*562 FILLER_0_3_57
*563 FILLER_0_3_69
*564 FILLER_0_3_81
*565 FILLER_0_3_93
*566 FILLER_0_40_109
*567 FILLER_0_40_121
*568 FILLER_0_40_133
*569 FILLER_0_40_139
*570 FILLER_0_40_141
*571 FILLER_0_40_145
*572 FILLER_0_40_15
*573 FILLER_0_40_27
*574 FILLER_0_40_29
*575 FILLER_0_40_3
*576 FILLER_0_40_41
*577 FILLER_0_40_53
*578 FILLER_0_40_65
*579 FILLER_0_40_77
*580 FILLER_0_40_83
*581 FILLER_0_40_85
*582 FILLER_0_40_97
*583 FILLER_0_41_105
*584 FILLER_0_41_111
*585 FILLER_0_41_113
*586 FILLER_0_41_125
*587 FILLER_0_41_137
*588 FILLER_0_41_145
*589 FILLER_0_41_15
*590 FILLER_0_41_27
*591 FILLER_0_41_3
*592 FILLER_0_41_39
*593 FILLER_0_41_51
*594 FILLER_0_41_55
*595 FILLER_0_41_57
*596 FILLER_0_41_69
*597 FILLER_0_41_81
*598 FILLER_0_41_93
*599 FILLER_0_42_109
*600 FILLER_0_42_121
*601 FILLER_0_42_133
*602 FILLER_0_42_139
*603 FILLER_0_42_141
*604 FILLER_0_42_145
*605 FILLER_0_42_15
*606 FILLER_0_42_27
*607 FILLER_0_42_29
*608 FILLER_0_42_3
*609 FILLER_0_42_41
*610 FILLER_0_42_53
*611 FILLER_0_42_65
*612 FILLER_0_42_77
*613 FILLER_0_42_83
*614 FILLER_0_42_85
*615 FILLER_0_42_97
*616 FILLER_0_43_105
*617 FILLER_0_43_111
*618 FILLER_0_43_113
*619 FILLER_0_43_125
*620 FILLER_0_43_137
*621 FILLER_0_43_145
*622 FILLER_0_43_15
*623 FILLER_0_43_27
*624 FILLER_0_43_3
*625 FILLER_0_43_39
*626 FILLER_0_43_51
*627 FILLER_0_43_55
*628 FILLER_0_43_57
*629 FILLER_0_43_69
*630 FILLER_0_43_81
*631 FILLER_0_43_93
*632 FILLER_0_44_109
*633 FILLER_0_44_121
*634 FILLER_0_44_133
*635 FILLER_0_44_139
*636 FILLER_0_44_141
*637 FILLER_0_44_145
*638 FILLER_0_44_15
*639 FILLER_0_44_27
*640 FILLER_0_44_29
*641 FILLER_0_44_3
*642 FILLER_0_44_41
*643 FILLER_0_44_53
*644 FILLER_0_44_65
*645 FILLER_0_44_77
*646 FILLER_0_44_83
*647 FILLER_0_44_85
*648 FILLER_0_44_97
*649 FILLER_0_45_105
*650 FILLER_0_45_111
*651 FILLER_0_45_113
*652 FILLER_0_45_125
*653 FILLER_0_45_137
*654 FILLER_0_45_145
*655 FILLER_0_45_15
*656 FILLER_0_45_27
*657 FILLER_0_45_3
*658 FILLER_0_45_39
*659 FILLER_0_45_51
*660 FILLER_0_45_55
*661 FILLER_0_45_57
*662 FILLER_0_45_69
*663 FILLER_0_45_81
*664 FILLER_0_45_93
*665 FILLER_0_46_109
*666 FILLER_0_46_121
*667 FILLER_0_46_133
*668 FILLER_0_46_139
*669 FILLER_0_46_141
*670 FILLER_0_46_145
*671 FILLER_0_46_15
*672 FILLER_0_46_27
*673 FILLER_0_46_29
*674 FILLER_0_46_3
*675 FILLER_0_46_41
*676 FILLER_0_46_53
*677 FILLER_0_46_65
*678 FILLER_0_46_77
*679 FILLER_0_46_83
*680 FILLER_0_46_85
*681 FILLER_0_46_97
*682 FILLER_0_47_105
*683 FILLER_0_47_111
*684 FILLER_0_47_113
*685 FILLER_0_47_125
*686 FILLER_0_47_137
*687 FILLER_0_47_15
*688 FILLER_0_47_27
*689 FILLER_0_47_3
*690 FILLER_0_47_39
*691 FILLER_0_47_51
*692 FILLER_0_47_55
*693 FILLER_0_47_57
*694 FILLER_0_47_69
*695 FILLER_0_47_81
*696 FILLER_0_47_93
*697 FILLER_0_48_109
*698 FILLER_0_48_121
*699 FILLER_0_48_133
*700 FILLER_0_48_139
*701 FILLER_0_48_141
*702 FILLER_0_48_145
*703 FILLER_0_48_15
*704 FILLER_0_48_27
*705 FILLER_0_48_29
*706 FILLER_0_48_3
*707 FILLER_0_48_41
*708 FILLER_0_48_53
*709 FILLER_0_48_65
*710 FILLER_0_48_77
*711 FILLER_0_48_83
*712 FILLER_0_48_85
*713 FILLER_0_48_97
*714 FILLER_0_49_105
*715 FILLER_0_49_111
*716 FILLER_0_49_113
*717 FILLER_0_49_125
*718 FILLER_0_49_137
*719 FILLER_0_49_145
*720 FILLER_0_49_15
*721 FILLER_0_49_27
*722 FILLER_0_49_3
*723 FILLER_0_49_39
*724 FILLER_0_49_51
*725 FILLER_0_49_55
*726 FILLER_0_49_57
*727 FILLER_0_49_69
*728 FILLER_0_49_81
*729 FILLER_0_49_93
*730 FILLER_0_4_109
*731 FILLER_0_4_121
*732 FILLER_0_4_133
*733 FILLER_0_4_139
*734 FILLER_0_4_141
*735 FILLER_0_4_15
*736 FILLER_0_4_27
*737 FILLER_0_4_29
*738 FILLER_0_4_3
*739 FILLER_0_4_41
*740 FILLER_0_4_53
*741 FILLER_0_4_65
*742 FILLER_0_4_77
*743 FILLER_0_4_83
*744 FILLER_0_4_85
*745 FILLER_0_4_97
*746 FILLER_0_50_109
*747 FILLER_0_50_121
*748 FILLER_0_50_133
*749 FILLER_0_50_139
*750 FILLER_0_50_141
*751 FILLER_0_50_145
*752 FILLER_0_50_15
*753 FILLER_0_50_27
*754 FILLER_0_50_29
*755 FILLER_0_50_3
*756 FILLER_0_50_41
*757 FILLER_0_50_53
*758 FILLER_0_50_65
*759 FILLER_0_50_77
*760 FILLER_0_50_83
*761 FILLER_0_50_85
*762 FILLER_0_50_97
*763 FILLER_0_51_105
*764 FILLER_0_51_111
*765 FILLER_0_51_113
*766 FILLER_0_51_125
*767 FILLER_0_51_137
*768 FILLER_0_51_145
*769 FILLER_0_51_15
*770 FILLER_0_51_27
*771 FILLER_0_51_3
*772 FILLER_0_51_39
*773 FILLER_0_51_51
*774 FILLER_0_51_55
*775 FILLER_0_51_57
*776 FILLER_0_51_69
*777 FILLER_0_51_81
*778 FILLER_0_51_93
*779 FILLER_0_52_109
*780 FILLER_0_52_121
*781 FILLER_0_52_133
*782 FILLER_0_52_139
*783 FILLER_0_52_141
*784 FILLER_0_52_145
*785 FILLER_0_52_15
*786 FILLER_0_52_27
*787 FILLER_0_52_29
*788 FILLER_0_52_3
*789 FILLER_0_52_41
*790 FILLER_0_52_53
*791 FILLER_0_52_65
*792 FILLER_0_52_77
*793 FILLER_0_52_83
*794 FILLER_0_52_85
*795 FILLER_0_52_97
*796 FILLER_0_53_105
*797 FILLER_0_53_111
*798 FILLER_0_53_113
*799 FILLER_0_53_125
*800 FILLER_0_53_137
*801 FILLER_0_53_145
*802 FILLER_0_53_15
*803 FILLER_0_53_27
*804 FILLER_0_53_3
*805 FILLER_0_53_39
*806 FILLER_0_53_51
*807 FILLER_0_53_55
*808 FILLER_0_53_57
*809 FILLER_0_53_69
*810 FILLER_0_53_81
*811 FILLER_0_53_93
*812 FILLER_0_54_109
*813 FILLER_0_54_121
*814 FILLER_0_54_133
*815 FILLER_0_54_139
*816 FILLER_0_54_141
*817 FILLER_0_54_145
*818 FILLER_0_54_15
*819 FILLER_0_54_27
*820 FILLER_0_54_29
*821 FILLER_0_54_3
*822 FILLER_0_54_41
*823 FILLER_0_54_53
*824 FILLER_0_54_65
*825 FILLER_0_54_77
*826 FILLER_0_54_83
*827 FILLER_0_54_85
*828 FILLER_0_54_97
*829 FILLER_0_55_105
*830 FILLER_0_55_111
*831 FILLER_0_55_113
*832 FILLER_0_55_125
*833 FILLER_0_55_137
*834 FILLER_0_55_145
*835 FILLER_0_55_15
*836 FILLER_0_55_27
*837 FILLER_0_55_3
*838 FILLER_0_55_39
*839 FILLER_0_55_51
*840 FILLER_0_55_55
*841 FILLER_0_55_57
*842 FILLER_0_55_69
*843 FILLER_0_55_81
*844 FILLER_0_55_93
*845 FILLER_0_56_109
*846 FILLER_0_56_121
*847 FILLER_0_56_133
*848 FILLER_0_56_139
*849 FILLER_0_56_141
*850 FILLER_0_56_145
*851 FILLER_0_56_15
*852 FILLER_0_56_27
*853 FILLER_0_56_29
*854 FILLER_0_56_3
*855 FILLER_0_56_41
*856 FILLER_0_56_53
*857 FILLER_0_56_65
*858 FILLER_0_56_77
*859 FILLER_0_56_83
*860 FILLER_0_56_85
*861 FILLER_0_56_97
*862 FILLER_0_57_105
*863 FILLER_0_57_111
*864 FILLER_0_57_113
*865 FILLER_0_57_125
*866 FILLER_0_57_137
*867 FILLER_0_57_145
*868 FILLER_0_57_15
*869 FILLER_0_57_27
*870 FILLER_0_57_3
*871 FILLER_0_57_39
*872 FILLER_0_57_51
*873 FILLER_0_57_55
*874 FILLER_0_57_57
*875 FILLER_0_57_69
*876 FILLER_0_57_81
*877 FILLER_0_57_93
*878 FILLER_0_58_109
*879 FILLER_0_58_121
*880 FILLER_0_58_133
*881 FILLER_0_58_139
*882 FILLER_0_58_141
*883 FILLER_0_58_145
*884 FILLER_0_58_15
*885 FILLER_0_58_27
*886 FILLER_0_58_29
*887 FILLER_0_58_3
*888 FILLER_0_58_41
*889 FILLER_0_58_53
*890 FILLER_0_58_65
*891 FILLER_0_58_77
*892 FILLER_0_58_83
*893 FILLER_0_58_85
*894 FILLER_0_58_97
*895 FILLER_0_59_105
*896 FILLER_0_59_111
*897 FILLER_0_59_113
*898 FILLER_0_59_125
*899 FILLER_0_59_137
*900 FILLER_0_59_145
*901 FILLER_0_59_15
*902 FILLER_0_59_27
*903 FILLER_0_59_3
*904 FILLER_0_59_39
*905 FILLER_0_59_51
*906 FILLER_0_59_55
*907 FILLER_0_59_57
*908 FILLER_0_59_69
*909 FILLER_0_59_81
*910 FILLER_0_59_93
*911 FILLER_0_5_105
*912 FILLER_0_5_111
*913 FILLER_0_5_113
*914 FILLER_0_5_125
*915 FILLER_0_5_137
*916 FILLER_0_5_145
*917 FILLER_0_5_15
*918 FILLER_0_5_27
*919 FILLER_0_5_3
*920 FILLER_0_5_39
*921 FILLER_0_5_51
*922 FILLER_0_5_55
*923 FILLER_0_5_57
*924 FILLER_0_5_69
*925 FILLER_0_5_81
*926 FILLER_0_5_93
*927 FILLER_0_60_109
*928 FILLER_0_60_121
*929 FILLER_0_60_133
*930 FILLER_0_60_139
*931 FILLER_0_60_141
*932 FILLER_0_60_145
*933 FILLER_0_60_15
*934 FILLER_0_60_27
*935 FILLER_0_60_29
*936 FILLER_0_60_3
*937 FILLER_0_60_41
*938 FILLER_0_60_53
*939 FILLER_0_60_65
*940 FILLER_0_60_77
*941 FILLER_0_60_83
*942 FILLER_0_60_85
*943 FILLER_0_60_97
*944 FILLER_0_61_105
*945 FILLER_0_61_111
*946 FILLER_0_61_113
*947 FILLER_0_61_125
*948 FILLER_0_61_137
*949 FILLER_0_61_145
*950 FILLER_0_61_15
*951 FILLER_0_61_27
*952 FILLER_0_61_3
*953 FILLER_0_61_39
*954 FILLER_0_61_51
*955 FILLER_0_61_55
*956 FILLER_0_61_57
*957 FILLER_0_61_69
*958 FILLER_0_61_81
*959 FILLER_0_61_93
*960 FILLER_0_62_109
*961 FILLER_0_62_121
*962 FILLER_0_62_133
*963 FILLER_0_62_139
*964 FILLER_0_62_141
*965 FILLER_0_62_15
*966 FILLER_0_62_27
*967 FILLER_0_62_29
*968 FILLER_0_62_3
*969 FILLER_0_62_41
*970 FILLER_0_62_53
*971 FILLER_0_62_65
*972 FILLER_0_62_77
*973 FILLER_0_62_83
*974 FILLER_0_62_85
*975 FILLER_0_62_97
*976 FILLER_0_63_105
*977 FILLER_0_63_111
*978 FILLER_0_63_113
*979 FILLER_0_63_125
*980 FILLER_0_63_137
*981 FILLER_0_63_145
*982 FILLER_0_63_15
*983 FILLER_0_63_27
*984 FILLER_0_63_3
*985 FILLER_0_63_39
*986 FILLER_0_63_51
*987 FILLER_0_63_55
*988 FILLER_0_63_57
*989 FILLER_0_63_69
*990 FILLER_0_63_81
*991 FILLER_0_63_93
*992 FILLER_0_64_109
*993 FILLER_0_64_121
*994 FILLER_0_64_133
*995 FILLER_0_64_139
*996 FILLER_0_64_141
*997 FILLER_0_64_145
*998 FILLER_0_64_15
*999 FILLER_0_64_27
*1000 FILLER_0_64_29
*1001 FILLER_0_64_3
*1002 FILLER_0_64_41
*1003 FILLER_0_64_53
*1004 FILLER_0_64_65
*1005 FILLER_0_64_77
*1006 FILLER_0_64_83
*1007 FILLER_0_64_85
*1008 FILLER_0_64_97
*1009 FILLER_0_65_105
*1010 FILLER_0_65_111
*1011 FILLER_0_65_113
*1012 FILLER_0_65_125
*1013 FILLER_0_65_137
*1014 FILLER_0_65_145
*1015 FILLER_0_65_15
*1016 FILLER_0_65_27
*1017 FILLER_0_65_3
*1018 FILLER_0_65_39
*1019 FILLER_0_65_51
*1020 FILLER_0_65_55
*1021 FILLER_0_65_57
*1022 FILLER_0_65_69
*1023 FILLER_0_65_81
*1024 FILLER_0_65_93
*1025 FILLER_0_66_109
*1026 FILLER_0_66_121
*1027 FILLER_0_66_133
*1028 FILLER_0_66_139
*1029 FILLER_0_66_141
*1030 FILLER_0_66_145
*1031 FILLER_0_66_15
*1032 FILLER_0_66_27
*1033 FILLER_0_66_29
*1034 FILLER_0_66_3
*1035 FILLER_0_66_41
*1036 FILLER_0_66_53
*1037 FILLER_0_66_65
*1038 FILLER_0_66_77
*1039 FILLER_0_66_83
*1040 FILLER_0_66_85
*1041 FILLER_0_66_97
*1042 FILLER_0_67_105
*1043 FILLER_0_67_111
*1044 FILLER_0_67_113
*1045 FILLER_0_67_125
*1046 FILLER_0_67_137
*1047 FILLER_0_67_145
*1048 FILLER_0_67_15
*1049 FILLER_0_67_27
*1050 FILLER_0_67_3
*1051 FILLER_0_67_39
*1052 FILLER_0_67_51
*1053 FILLER_0_67_55
*1054 FILLER_0_67_57
*1055 FILLER_0_67_69
*1056 FILLER_0_67_81
*1057 FILLER_0_67_93
*1058 FILLER_0_68_109
*1059 FILLER_0_68_121
*1060 FILLER_0_68_133
*1061 FILLER_0_68_139
*1062 FILLER_0_68_141
*1063 FILLER_0_68_145
*1064 FILLER_0_68_15
*1065 FILLER_0_68_27
*1066 FILLER_0_68_29
*1067 FILLER_0_68_3
*1068 FILLER_0_68_41
*1069 FILLER_0_68_53
*1070 FILLER_0_68_65
*1071 FILLER_0_68_77
*1072 FILLER_0_68_83
*1073 FILLER_0_68_85
*1074 FILLER_0_68_97
*1075 FILLER_0_69_105
*1076 FILLER_0_69_111
*1077 FILLER_0_69_113
*1078 FILLER_0_69_125
*1079 FILLER_0_69_137
*1080 FILLER_0_69_145
*1081 FILLER_0_69_15
*1082 FILLER_0_69_27
*1083 FILLER_0_69_3
*1084 FILLER_0_69_39
*1085 FILLER_0_69_51
*1086 FILLER_0_69_55
*1087 FILLER_0_69_57
*1088 FILLER_0_69_69
*1089 FILLER_0_69_81
*1090 FILLER_0_69_93
*1091 FILLER_0_6_109
*1092 FILLER_0_6_121
*1093 FILLER_0_6_133
*1094 FILLER_0_6_139
*1095 FILLER_0_6_141
*1096 FILLER_0_6_145
*1097 FILLER_0_6_15
*1098 FILLER_0_6_27
*1099 FILLER_0_6_29
*1100 FILLER_0_6_3
*1101 FILLER_0_6_41
*1102 FILLER_0_6_53
*1103 FILLER_0_6_65
*1104 FILLER_0_6_77
*1105 FILLER_0_6_83
*1106 FILLER_0_6_85
*1107 FILLER_0_6_97
*1108 FILLER_0_70_109
*1109 FILLER_0_70_121
*1110 FILLER_0_70_133
*1111 FILLER_0_70_139
*1112 FILLER_0_70_141
*1113 FILLER_0_70_145
*1114 FILLER_0_70_15
*1115 FILLER_0_70_27
*1116 FILLER_0_70_29
*1117 FILLER_0_70_3
*1118 FILLER_0_70_41
*1119 FILLER_0_70_53
*1120 FILLER_0_70_65
*1121 FILLER_0_70_77
*1122 FILLER_0_70_83
*1123 FILLER_0_70_85
*1124 FILLER_0_70_97
*1125 FILLER_0_71_105
*1126 FILLER_0_71_111
*1127 FILLER_0_71_113
*1128 FILLER_0_71_125
*1129 FILLER_0_71_137
*1130 FILLER_0_71_145
*1131 FILLER_0_71_15
*1132 FILLER_0_71_27
*1133 FILLER_0_71_3
*1134 FILLER_0_71_39
*1135 FILLER_0_71_51
*1136 FILLER_0_71_55
*1137 FILLER_0_71_57
*1138 FILLER_0_71_69
*1139 FILLER_0_71_81
*1140 FILLER_0_71_93
*1141 FILLER_0_72_109
*1142 FILLER_0_72_121
*1143 FILLER_0_72_133
*1144 FILLER_0_72_139
*1145 FILLER_0_72_141
*1146 FILLER_0_72_145
*1147 FILLER_0_72_15
*1148 FILLER_0_72_27
*1149 FILLER_0_72_29
*1150 FILLER_0_72_3
*1151 FILLER_0_72_41
*1152 FILLER_0_72_53
*1153 FILLER_0_72_65
*1154 FILLER_0_72_77
*1155 FILLER_0_72_83
*1156 FILLER_0_72_85
*1157 FILLER_0_72_97
*1158 FILLER_0_73_105
*1159 FILLER_0_73_111
*1160 FILLER_0_73_113
*1161 FILLER_0_73_125
*1162 FILLER_0_73_137
*1163 FILLER_0_73_145
*1164 FILLER_0_73_15
*1165 FILLER_0_73_27
*1166 FILLER_0_73_3
*1167 FILLER_0_73_39
*1168 FILLER_0_73_51
*1169 FILLER_0_73_55
*1170 FILLER_0_73_57
*1171 FILLER_0_73_69
*1172 FILLER_0_73_81
*1173 FILLER_0_73_93
*1174 FILLER_0_74_109
*1175 FILLER_0_74_121
*1176 FILLER_0_74_133
*1177 FILLER_0_74_139
*1178 FILLER_0_74_141
*1179 FILLER_0_74_145
*1180 FILLER_0_74_15
*1181 FILLER_0_74_27
*1182 FILLER_0_74_29
*1183 FILLER_0_74_3
*1184 FILLER_0_74_41
*1185 FILLER_0_74_53
*1186 FILLER_0_74_65
*1187 FILLER_0_74_77
*1188 FILLER_0_74_83
*1189 FILLER_0_74_85
*1190 FILLER_0_74_97
*1191 FILLER_0_75_105
*1192 FILLER_0_75_111
*1193 FILLER_0_75_113
*1194 FILLER_0_75_125
*1195 FILLER_0_75_137
*1196 FILLER_0_75_145
*1197 FILLER_0_75_15
*1198 FILLER_0_75_27
*1199 FILLER_0_75_3
*1200 FILLER_0_75_39
*1201 FILLER_0_75_51
*1202 FILLER_0_75_55
*1203 FILLER_0_75_57
*1204 FILLER_0_75_69
*1205 FILLER_0_75_81
*1206 FILLER_0_75_93
*1207 FILLER_0_76_109
*1208 FILLER_0_76_121
*1209 FILLER_0_76_133
*1210 FILLER_0_76_139
*1211 FILLER_0_76_141
*1212 FILLER_0_76_15
*1213 FILLER_0_76_27
*1214 FILLER_0_76_29
*1215 FILLER_0_76_3
*1216 FILLER_0_76_41
*1217 FILLER_0_76_53
*1218 FILLER_0_76_65
*1219 FILLER_0_76_77
*1220 FILLER_0_76_83
*1221 FILLER_0_76_85
*1222 FILLER_0_76_97
*1223 FILLER_0_77_105
*1224 FILLER_0_77_111
*1225 FILLER_0_77_113
*1226 FILLER_0_77_125
*1227 FILLER_0_77_137
*1228 FILLER_0_77_145
*1229 FILLER_0_77_15
*1230 FILLER_0_77_27
*1231 FILLER_0_77_3
*1232 FILLER_0_77_39
*1233 FILLER_0_77_51
*1234 FILLER_0_77_55
*1235 FILLER_0_77_57
*1236 FILLER_0_77_69
*1237 FILLER_0_77_81
*1238 FILLER_0_77_93
*1239 FILLER_0_78_109
*1240 FILLER_0_78_121
*1241 FILLER_0_78_133
*1242 FILLER_0_78_139
*1243 FILLER_0_78_141
*1244 FILLER_0_78_145
*1245 FILLER_0_78_15
*1246 FILLER_0_78_27
*1247 FILLER_0_78_29
*1248 FILLER_0_78_3
*1249 FILLER_0_78_41
*1250 FILLER_0_78_53
*1251 FILLER_0_78_65
*1252 FILLER_0_78_77
*1253 FILLER_0_78_83
*1254 FILLER_0_78_85
*1255 FILLER_0_78_97
*1256 FILLER_0_79_109
*1257 FILLER_0_79_113
*1258 FILLER_0_79_125
*1259 FILLER_0_79_137
*1260 FILLER_0_79_141
*1261 FILLER_0_79_145
*1262 FILLER_0_79_15
*1263 FILLER_0_79_27
*1264 FILLER_0_79_29
*1265 FILLER_0_79_3
*1266 FILLER_0_79_41
*1267 FILLER_0_79_53
*1268 FILLER_0_79_57
*1269 FILLER_0_79_69
*1270 FILLER_0_79_81
*1271 FILLER_0_79_85
*1272 FILLER_0_79_97
*1273 FILLER_0_7_105
*1274 FILLER_0_7_111
*1275 FILLER_0_7_113
*1276 FILLER_0_7_125
*1277 FILLER_0_7_137
*1278 FILLER_0_7_145
*1279 FILLER_0_7_15
*1280 FILLER_0_7_27
*1281 FILLER_0_7_3
*1282 FILLER_0_7_39
*1283 FILLER_0_7_51
*1284 FILLER_0_7_55
*1285 FILLER_0_7_57
*1286 FILLER_0_7_69
*1287 FILLER_0_7_81
*1288 FILLER_0_7_93
*1289 FILLER_0_8_109
*1290 FILLER_0_8_121
*1291 FILLER_0_8_133
*1292 FILLER_0_8_139
*1293 FILLER_0_8_141
*1294 FILLER_0_8_145
*1295 FILLER_0_8_15
*1296 FILLER_0_8_27
*1297 FILLER_0_8_29
*1298 FILLER_0_8_3
*1299 FILLER_0_8_41
*1300 FILLER_0_8_53
*1301 FILLER_0_8_65
*1302 FILLER_0_8_77
*1303 FILLER_0_8_83
*1304 FILLER_0_8_85
*1305 FILLER_0_8_97
*1306 FILLER_0_9_105
*1307 FILLER_0_9_111
*1308 FILLER_0_9_113
*1309 FILLER_0_9_125
*1310 FILLER_0_9_137
*1311 FILLER_0_9_145
*1312 FILLER_0_9_15
*1313 FILLER_0_9_27
*1314 FILLER_0_9_3
*1315 FILLER_0_9_39
*1316 FILLER_0_9_51
*1317 FILLER_0_9_55
*1318 FILLER_0_9_57
*1319 FILLER_0_9_69
*1320 FILLER_0_9_81
*1321 FILLER_0_9_93
*1322 PHY_0
*1323 PHY_1
*1324 PHY_10
*1325 PHY_100
*1326 PHY_101
*1327 PHY_102
*1328 PHY_103
*1329 PHY_104
*1330 PHY_105
*1331 PHY_106
*1332 PHY_107
*1333 PHY_108
*1334 PHY_109
*1335 PHY_11
*1336 PHY_110
*1337 PHY_111
*1338 PHY_112
*1339 PHY_113
*1340 PHY_114
*1341 PHY_115
*1342 PHY_116
*1343 PHY_117
*1344 PHY_118
*1345 PHY_119
*1346 PHY_12
*1347 PHY_120
*1348 PHY_121
*1349 PHY_122
*1350 PHY_123
*1351 PHY_124
*1352 PHY_125
*1353 PHY_126
*1354 PHY_127
*1355 PHY_128
*1356 PHY_129
*1357 PHY_13
*1358 PHY_130
*1359 PHY_131
*1360 PHY_132
*1361 PHY_133
*1362 PHY_134
*1363 PHY_135
*1364 PHY_136
*1365 PHY_137
*1366 PHY_138
*1367 PHY_139
*1368 PHY_14
*1369 PHY_140
*1370 PHY_141
*1371 PHY_142
*1372 PHY_143
*1373 PHY_144
*1374 PHY_145
*1375 PHY_146
*1376 PHY_147
*1377 PHY_148
*1378 PHY_149
*1379 PHY_15
*1380 PHY_150
*1381 PHY_151
*1382 PHY_152
*1383 PHY_153
*1384 PHY_154
*1385 PHY_155
*1386 PHY_156
*1387 PHY_157
*1388 PHY_158
*1389 PHY_159
*1390 PHY_16
*1391 PHY_17
*1392 PHY_18
*1393 PHY_19
*1394 PHY_2
*1395 PHY_20
*1396 PHY_21
*1397 PHY_22
*1398 PHY_23
*1399 PHY_24
*1400 PHY_25
*1401 PHY_26
*1402 PHY_27
*1403 PHY_28
*1404 PHY_29
*1405 PHY_3
*1406 PHY_30
*1407 PHY_31
*1408 PHY_32
*1409 PHY_33
*1410 PHY_34
*1411 PHY_35
*1412 PHY_36
*1413 PHY_37
*1414 PHY_38
*1415 PHY_39
*1416 PHY_4
*1417 PHY_40
*1418 PHY_41
*1419 PHY_42
*1420 PHY_43
*1421 PHY_44
*1422 PHY_45
*1423 PHY_46
*1424 PHY_47
*1425 PHY_48
*1426 PHY_49
*1427 PHY_5
*1428 PHY_50
*1429 PHY_51
*1430 PHY_52
*1431 PHY_53
*1432 PHY_54
*1433 PHY_55
*1434 PHY_56
*1435 PHY_57
*1436 PHY_58
*1437 PHY_59
*1438 PHY_6
*1439 PHY_60
*1440 PHY_61
*1441 PHY_62
*1442 PHY_63
*1443 PHY_64
*1444 PHY_65
*1445 PHY_66
*1446 PHY_67
*1447 PHY_68
*1448 PHY_69
*1449 PHY_7
*1450 PHY_70
*1451 PHY_71
*1452 PHY_72
*1453 PHY_73
*1454 PHY_74
*1455 PHY_75
*1456 PHY_76
*1457 PHY_77
*1458 PHY_78
*1459 PHY_79
*1460 PHY_8
*1461 PHY_80
*1462 PHY_81
*1463 PHY_82
*1464 PHY_83
*1465 PHY_84
*1466 PHY_85
*1467 PHY_86
*1468 PHY_87
*1469 PHY_88
*1470 PHY_89
*1471 PHY_9
*1472 PHY_90
*1473 PHY_91
*1474 PHY_92
*1475 PHY_93
*1476 PHY_94
*1477 PHY_95
*1478 PHY_96
*1479 PHY_97
*1480 PHY_98
*1481 PHY_99
*1482 TAP_160
*1483 TAP_161
*1484 TAP_162
*1485 TAP_163
*1486 TAP_164
*1487 TAP_165
*1488 TAP_166
*1489 TAP_167
*1490 TAP_168
*1491 TAP_169
*1492 TAP_170
*1493 TAP_171
*1494 TAP_172
*1495 TAP_173
*1496 TAP_174
*1497 TAP_175
*1498 TAP_176
*1499 TAP_177
*1500 TAP_178
*1501 TAP_179
*1502 TAP_180
*1503 TAP_181
*1504 TAP_182
*1505 TAP_183
*1506 TAP_184
*1507 TAP_185
*1508 TAP_186
*1509 TAP_187
*1510 TAP_188
*1511 TAP_189
*1512 TAP_190
*1513 TAP_191
*1514 TAP_192
*1515 TAP_193
*1516 TAP_194
*1517 TAP_195
*1518 TAP_196
*1519 TAP_197
*1520 TAP_198
*1521 TAP_199
*1522 TAP_200
*1523 TAP_201
*1524 TAP_202
*1525 TAP_203
*1526 TAP_204
*1527 TAP_205
*1528 TAP_206
*1529 TAP_207
*1530 TAP_208
*1531 TAP_209
*1532 TAP_210
*1533 TAP_211
*1534 TAP_212
*1535 TAP_213