*SPEF "ieee 1481-1999"
*DESIGN "analog_io_control"
*DATE "11:11:11 Fri 11 11, 1111"
*VENDOR "OpenRCX"
*PROGRAM "Parallel Extraction"
*VERSION "1.0"
*DESIGN_FLOW "NAME_SCOPE LOCAL" "PIN_CAP NONE"
*DIVIDER /
*DELIMITER :
*BUS_DELIMITER []
*T_UNIT 1 NS
*C_UNIT 1 PF
*R_UNIT 1 OHM
*L_UNIT 1 HENRY

*NAME_MAP
*1 net4
*2 net5
*3 net6
*4 net7
*5 net8
*6 net9
*7 net10
*8 net11
*9 net12
*10 net1
*11 net2
*12 net3
*13 FILLER_0_0_109
*14 FILLER_0_0_113
*15 FILLER_0_0_125
*16 FILLER_0_0_137
*17 FILLER_0_0_141
*18 FILLER_0_0_145
*19 FILLER_0_0_15
*20 FILLER_0_0_27
*21 FILLER_0_0_29
*22 FILLER_0_0_3
*23 FILLER_0_0_41
*24 FILLER_0_0_53
*25 FILLER_0_0_57
*26 FILLER_0_0_69
*27 FILLER_0_0_81
*28 FILLER_0_0_85
*29 FILLER_0_0_97
*30 FILLER_0_10_109
*31 FILLER_0_10_121
*32 FILLER_0_10_133
*33 FILLER_0_10_139
*34 FILLER_0_10_141
*35 FILLER_0_10_145
*36 FILLER_0_10_15
*37 FILLER_0_10_27
*38 FILLER_0_10_29
*39 FILLER_0_10_3
*40 FILLER_0_10_41
*41 FILLER_0_10_53
*42 FILLER_0_10_65
*43 FILLER_0_10_77
*44 FILLER_0_10_83
*45 FILLER_0_10_85
*46 FILLER_0_10_97
*47 FILLER_0_11_105
*48 FILLER_0_11_111
*49 FILLER_0_11_113
*50 FILLER_0_11_125
*51 FILLER_0_11_137
*52 FILLER_0_11_145
*53 FILLER_0_11_15
*54 FILLER_0_11_27
*55 FILLER_0_11_3
*56 FILLER_0_11_39
*57 FILLER_0_11_51
*58 FILLER_0_11_55
*59 FILLER_0_11_57
*60 FILLER_0_11_69
*61 FILLER_0_11_81
*62 FILLER_0_11_93
*63 FILLER_0_12_109
*64 FILLER_0_12_121
*65 FILLER_0_12_133
*66 FILLER_0_12_139
*67 FILLER_0_12_141
*68 FILLER_0_12_145
*69 FILLER_0_12_15
*70 FILLER_0_12_27
*71 FILLER_0_12_29
*72 FILLER_0_12_3
*73 FILLER_0_12_41
*74 FILLER_0_12_53
*75 FILLER_0_12_65
*76 FILLER_0_12_77
*77 FILLER_0_12_83
*78 FILLER_0_12_85
*79 FILLER_0_12_97
*80 FILLER_0_13_105
*81 FILLER_0_13_111
*82 FILLER_0_13_113
*83 FILLER_0_13_125
*84 FILLER_0_13_137
*85 FILLER_0_13_145
*86 FILLER_0_13_15
*87 FILLER_0_13_27
*88 FILLER_0_13_3
*89 FILLER_0_13_39
*90 FILLER_0_13_51
*91 FILLER_0_13_55
*92 FILLER_0_13_57
*93 FILLER_0_13_69
*94 FILLER_0_13_81
*95 FILLER_0_13_93
*96 FILLER_0_14_109
*97 FILLER_0_14_121
*98 FILLER_0_14_133
*99 FILLER_0_14_139
*100 FILLER_0_14_141
*101 FILLER_0_14_145
*102 FILLER_0_14_15
*103 FILLER_0_14_27
*104 FILLER_0_14_29
*105 FILLER_0_14_3
*106 FILLER_0_14_41
*107 FILLER_0_14_53
*108 FILLER_0_14_65
*109 FILLER_0_14_77
*110 FILLER_0_14_83
*111 FILLER_0_14_85
*112 FILLER_0_14_97
*113 FILLER_0_15_105
*114 FILLER_0_15_111
*115 FILLER_0_15_113
*116 FILLER_0_15_125
*117 FILLER_0_15_137
*118 FILLER_0_15_145
*119 FILLER_0_15_15
*120 FILLER_0_15_27
*121 FILLER_0_15_3
*122 FILLER_0_15_39
*123 FILLER_0_15_51
*124 FILLER_0_15_55
*125 FILLER_0_15_57
*126 FILLER_0_15_69
*127 FILLER_0_15_81
*128 FILLER_0_15_93
*129 FILLER_0_16_109
*130 FILLER_0_16_121
*131 FILLER_0_16_133
*132 FILLER_0_16_139
*133 FILLER_0_16_141
*134 FILLER_0_16_15
*135 FILLER_0_16_27
*136 FILLER_0_16_29
*137 FILLER_0_16_3
*138 FILLER_0_16_41
*139 FILLER_0_16_53
*140 FILLER_0_16_65
*141 FILLER_0_16_77
*142 FILLER_0_16_83
*143 FILLER_0_16_85
*144 FILLER_0_16_97
*145 FILLER_0_17_105
*146 FILLER_0_17_111
*147 FILLER_0_17_113
*148 FILLER_0_17_125
*149 FILLER_0_17_137
*150 FILLER_0_17_145
*151 FILLER_0_17_15
*152 FILLER_0_17_27
*153 FILLER_0_17_3
*154 FILLER_0_17_39
*155 FILLER_0_17_51
*156 FILLER_0_17_55
*157 FILLER_0_17_57
*158 FILLER_0_17_69
*159 FILLER_0_17_81
*160 FILLER_0_17_93
*161 FILLER_0_18_109
*162 FILLER_0_18_121
*163 FILLER_0_18_133
*164 FILLER_0_18_139
*165 FILLER_0_18_141
*166 FILLER_0_18_145
*167 FILLER_0_18_15
*168 FILLER_0_18_27
*169 FILLER_0_18_29
*170 FILLER_0_18_3
*171 FILLER_0_18_41
*172 FILLER_0_18_53
*173 FILLER_0_18_65
*174 FILLER_0_18_77
*175 FILLER_0_18_83
*176 FILLER_0_18_85
*177 FILLER_0_18_97
*178 FILLER_0_19_105
*179 FILLER_0_19_111
*180 FILLER_0_19_113
*181 FILLER_0_19_125
*182 FILLER_0_19_137
*183 FILLER_0_19_145
*184 FILLER_0_19_15
*185 FILLER_0_19_27
*186 FILLER_0_19_3
*187 FILLER_0_19_39
*188 FILLER_0_19_51
*189 FILLER_0_19_55
*190 FILLER_0_19_57
*191 FILLER_0_19_69
*192 FILLER_0_19_81
*193 FILLER_0_19_93
*194 FILLER_0_1_105
*195 FILLER_0_1_111
*196 FILLER_0_1_113
*197 FILLER_0_1_125
*198 FILLER_0_1_137
*199 FILLER_0_1_145
*200 FILLER_0_1_15
*201 FILLER_0_1_27
*202 FILLER_0_1_3
*203 FILLER_0_1_39
*204 FILLER_0_1_51
*205 FILLER_0_1_55
*206 FILLER_0_1_57
*207 FILLER_0_1_69
*208 FILLER_0_1_81
*209 FILLER_0_1_93
*210 FILLER_0_20_109
*211 FILLER_0_20_121
*212 FILLER_0_20_133
*213 FILLER_0_20_139
*214 FILLER_0_20_141
*215 FILLER_0_20_145
*216 FILLER_0_20_15
*217 FILLER_0_20_27
*218 FILLER_0_20_29
*219 FILLER_0_20_3
*220 FILLER_0_20_41
*221 FILLER_0_20_53
*222 FILLER_0_20_65
*223 FILLER_0_20_77
*224 FILLER_0_20_83
*225 FILLER_0_20_85
*226 FILLER_0_20_97
*227 FILLER_0_21_105
*228 FILLER_0_21_111
*229 FILLER_0_21_113
*230 FILLER_0_21_125
*231 FILLER_0_21_137
*232 FILLER_0_21_145
*233 FILLER_0_21_15
*234 FILLER_0_21_27
*235 FILLER_0_21_3
*236 FILLER_0_21_39
*237 FILLER_0_21_51
*238 FILLER_0_21_55
*239 FILLER_0_21_57
*240 FILLER_0_21_69
*241 FILLER_0_21_81
*242 FILLER_0_21_93
*243 FILLER_0_22_109
*244 FILLER_0_22_121
*245 FILLER_0_22_133
*246 FILLER_0_22_139
*247 FILLER_0_22_141
*248 FILLER_0_22_145
*249 FILLER_0_22_15
*250 FILLER_0_22_27
*251 FILLER_0_22_29
*252 FILLER_0_22_3
*253 FILLER_0_22_41
*254 FILLER_0_22_53
*255 FILLER_0_22_65
*256 FILLER_0_22_77
*257 FILLER_0_22_83
*258 FILLER_0_22_85
*259 FILLER_0_22_97
*260 FILLER_0_23_105
*261 FILLER_0_23_111
*262 FILLER_0_23_113
*263 FILLER_0_23_125
*264 FILLER_0_23_137
*265 FILLER_0_23_15
*266 FILLER_0_23_27
*267 FILLER_0_23_3
*268 FILLER_0_23_39
*269 FILLER_0_23_51
*270 FILLER_0_23_55
*271 FILLER_0_23_57
*272 FILLER_0_23_69
*273 FILLER_0_23_81
*274 FILLER_0_23_93
*275 FILLER_0_24_109
*276 FILLER_0_24_121
*277 FILLER_0_24_133
*278 FILLER_0_24_139
*279 FILLER_0_24_141
*280 FILLER_0_24_145
*281 FILLER_0_24_15
*282 FILLER_0_24_27
*283 FILLER_0_24_29
*284 FILLER_0_24_3
*285 FILLER_0_24_41
*286 FILLER_0_24_53
*287 FILLER_0_24_65
*288 FILLER_0_24_77
*289 FILLER_0_24_83
*290 FILLER_0_24_85
*291 FILLER_0_24_97
*292 FILLER_0_25_105
*293 FILLER_0_25_111
*294 FILLER_0_25_113
*295 FILLER_0_25_125
*296 FILLER_0_25_137
*297 FILLER_0_25_145
*298 FILLER_0_25_15
*299 FILLER_0_25_27
*300 FILLER_0_25_3
*301 FILLER_0_25_39
*302 FILLER_0_25_51
*303 FILLER_0_25_55
*304 FILLER_0_25_57
*305 FILLER_0_25_69
*306 FILLER_0_25_81
*307 FILLER_0_25_93
*308 FILLER_0_26_109
*309 FILLER_0_26_121
*310 FILLER_0_26_133
*311 FILLER_0_26_139
*312 FILLER_0_26_141
*313 FILLER_0_26_145
*314 FILLER_0_26_15
*315 FILLER_0_26_27
*316 FILLER_0_26_29
*317 FILLER_0_26_3
*318 FILLER_0_26_41
*319 FILLER_0_26_53
*320 FILLER_0_26_65
*321 FILLER_0_26_77
*322 FILLER_0_26_83
*323 FILLER_0_26_85
*324 FILLER_0_26_97
*325 FILLER_0_27_105
*326 FILLER_0_27_111
*327 FILLER_0_27_113
*328 FILLER_0_27_125
*329 FILLER_0_27_137
*330 FILLER_0_27_145
*331 FILLER_0_27_15
*332 FILLER_0_27_27
*333 FILLER_0_27_3
*334 FILLER_0_27_39
*335 FILLER_0_27_51
*336 FILLER_0_27_55
*337 FILLER_0_27_57
*338 FILLER_0_27_69
*339 FILLER_0_27_81
*340 FILLER_0_27_93
*341 FILLER_0_28_109
*342 FILLER_0_28_121
*343 FILLER_0_28_133
*344 FILLER_0_28_139
*345 FILLER_0_28_141
*346 FILLER_0_28_145
*347 FILLER_0_28_15
*348 FILLER_0_28_27
*349 FILLER_0_28_29
*350 FILLER_0_28_3
*351 FILLER_0_28_41
*352 FILLER_0_28_53
*353 FILLER_0_28_65
*354 FILLER_0_28_77
*355 FILLER_0_28_83
*356 FILLER_0_28_85
*357 FILLER_0_28_97
*358 FILLER_0_29_105
*359 FILLER_0_29_111
*360 FILLER_0_29_113
*361 FILLER_0_29_125
*362 FILLER_0_29_137
*363 FILLER_0_29_145
*364 FILLER_0_29_15
*365 FILLER_0_29_27
*366 FILLER_0_29_3
*367 FILLER_0_29_39
*368 FILLER_0_29_51
*369 FILLER_0_29_55
*370 FILLER_0_29_57
*371 FILLER_0_29_69
*372 FILLER_0_29_81
*373 FILLER_0_29_93
*374 FILLER_0_2_109
*375 FILLER_0_2_121
*376 FILLER_0_2_133
*377 FILLER_0_2_139
*378 FILLER_0_2_141
*379 FILLER_0_2_15
*380 FILLER_0_2_27
*381 FILLER_0_2_29
*382 FILLER_0_2_3
*383 FILLER_0_2_41
*384 FILLER_0_2_53
*385 FILLER_0_2_65
*386 FILLER_0_2_77
*387 FILLER_0_2_83
*388 FILLER_0_2_85
*389 FILLER_0_2_97
*390 FILLER_0_30_109
*391 FILLER_0_30_121
*392 FILLER_0_30_133
*393 FILLER_0_30_139
*394 FILLER_0_30_141
*395 FILLER_0_30_15
*396 FILLER_0_30_27
*397 FILLER_0_30_29
*398 FILLER_0_30_3
*399 FILLER_0_30_41
*400 FILLER_0_30_53
*401 FILLER_0_30_65
*402 FILLER_0_30_77
*403 FILLER_0_30_83
*404 FILLER_0_30_85
*405 FILLER_0_30_97
*406 FILLER_0_31_105
*407 FILLER_0_31_111
*408 FILLER_0_31_113
*409 FILLER_0_31_125
*410 FILLER_0_31_137
*411 FILLER_0_31_145
*412 FILLER_0_31_15
*413 FILLER_0_31_27
*414 FILLER_0_31_3
*415 FILLER_0_31_39
*416 FILLER_0_31_51
*417 FILLER_0_31_55
*418 FILLER_0_31_57
*419 FILLER_0_31_69
*420 FILLER_0_31_81
*421 FILLER_0_31_93
*422 FILLER_0_32_109
*423 FILLER_0_32_121
*424 FILLER_0_32_133
*425 FILLER_0_32_139
*426 FILLER_0_32_141
*427 FILLER_0_32_145
*428 FILLER_0_32_15
*429 FILLER_0_32_27
*430 FILLER_0_32_29
*431 FILLER_0_32_3
*432 FILLER_0_32_41
*433 FILLER_0_32_53
*434 FILLER_0_32_65
*435 FILLER_0_32_77
*436 FILLER_0_32_83
*437 FILLER_0_32_85
*438 FILLER_0_32_97
*439 FILLER_0_33_105
*440 FILLER_0_33_111
*441 FILLER_0_33_113
*442 FILLER_0_33_125
*443 FILLER_0_33_137
*444 FILLER_0_33_145
*445 FILLER_0_33_15
*446 FILLER_0_33_27
*447 FILLER_0_33_3
*448 FILLER_0_33_39
*449 FILLER_0_33_51
*450 FILLER_0_33_55
*451 FILLER_0_33_57
*452 FILLER_0_33_69
*453 FILLER_0_33_81
*454 FILLER_0_33_93
*455 FILLER_0_34_109
*456 FILLER_0_34_121
*457 FILLER_0_34_133
*458 FILLER_0_34_139
*459 FILLER_0_34_141
*460 FILLER_0_34_145
*461 FILLER_0_34_15
*462 FILLER_0_34_27
*463 FILLER_0_34_29
*464 FILLER_0_34_3
*465 FILLER_0_34_41
*466 FILLER_0_34_53
*467 FILLER_0_34_65
*468 FILLER_0_34_77
*469 FILLER_0_34_83
*470 FILLER_0_34_85
*471 FILLER_0_34_97
*472 FILLER_0_35_105
*473 FILLER_0_35_111
*474 FILLER_0_35_113
*475 FILLER_0_35_125
*476 FILLER_0_35_137
*477 FILLER_0_35_145
*478 FILLER_0_35_15
*479 FILLER_0_35_27
*480 FILLER_0_35_3
*481 FILLER_0_35_39
*482 FILLER_0_35_51
*483 FILLER_0_35_55
*484 FILLER_0_35_57
*485 FILLER_0_35_69
*486 FILLER_0_35_81
*487 FILLER_0_35_93
*488 FILLER_0_36_109
*489 FILLER_0_36_121
*490 FILLER_0_36_133
*491 FILLER_0_36_139
*492 FILLER_0_36_141
*493 FILLER_0_36_145
*494 FILLER_0_36_15
*495 FILLER_0_36_27
*496 FILLER_0_36_29
*497 FILLER_0_36_3
*498 FILLER_0_36_41
*499 FILLER_0_36_53
*500 FILLER_0_36_65
*501 FILLER_0_36_77
*502 FILLER_0_36_83
*503 FILLER_0_36_85
*504 FILLER_0_36_97
*505 FILLER_0_37_105
*506 FILLER_0_37_111
*507 FILLER_0_37_113
*508 FILLER_0_37_125
*509 FILLER_0_37_137
*510 FILLER_0_37_15
*511 FILLER_0_37_27
*512 FILLER_0_37_3
*513 FILLER_0_37_39
*514 FILLER_0_37_51
*515 FILLER_0_37_55
*516 FILLER_0_37_57
*517 FILLER_0_37_69
*518 FILLER_0_37_81
*519 FILLER_0_37_93
*520 FILLER_0_38_109
*521 FILLER_0_38_121
*522 FILLER_0_38_133
*523 FILLER_0_38_139
*524 FILLER_0_38_141
*525 FILLER_0_38_145
*526 FILLER_0_38_15
*527 FILLER_0_38_27
*528 FILLER_0_38_29
*529 FILLER_0_38_3
*530 FILLER_0_38_41
*531 FILLER_0_38_53
*532 FILLER_0_38_65
*533 FILLER_0_38_77
*534 FILLER_0_38_83
*535 FILLER_0_38_85
*536 FILLER_0_38_97
*537 FILLER_0_39_105
*538 FILLER_0_39_111
*539 FILLER_0_39_113
*540 FILLER_0_39_125
*541 FILLER_0_39_137
*542 FILLER_0_39_145
*543 FILLER_0_39_15
*544 FILLER_0_39_27
*545 FILLER_0_39_3
*546 FILLER_0_39_39
*547 FILLER_0_39_51
*548 FILLER_0_39_55
*549 FILLER_0_39_57
*550 FILLER_0_39_69
*551 FILLER_0_39_81
*552 FILLER_0_39_93
*553 FILLER_0_3_105
*554 FILLER_0_3_111
*555 FILLER_0_3_113
*556 FILLER_0_3_125
*557 FILLER_0_3_137
*558 FILLER_0_3_145
*559 FILLER_0_3_15
*560 FILLER_0_3_27
*561 FILLER_0_3_3
*562 FILLER_0_3_39
*563 FILLER_0_3_51
*564 FILLER_0_3_55
*565 FILLER_0_3_57
*566 FILLER_0_3_69
*567 FILLER_0_3_81
*568 FILLER_0_3_93
*569 FILLER_0_40_109
*570 FILLER_0_40_121
*571 FILLER_0_40_133
*572 FILLER_0_40_139
*573 FILLER_0_40_141
*574 FILLER_0_40_145
*575 FILLER_0_40_15
*576 FILLER_0_40_27
*577 FILLER_0_40_29
*578 FILLER_0_40_3
*579 FILLER_0_40_41
*580 FILLER_0_40_53
*581 FILLER_0_40_65
*582 FILLER_0_40_77
*583 FILLER_0_40_83
*584 FILLER_0_40_85
*585 FILLER_0_40_97
*586 FILLER_0_41_105
*587 FILLER_0_41_111
*588 FILLER_0_41_113
*589 FILLER_0_41_125
*590 FILLER_0_41_137
*591 FILLER_0_41_145
*592 FILLER_0_41_15
*593 FILLER_0_41_27
*594 FILLER_0_41_3
*595 FILLER_0_41_39
*596 FILLER_0_41_51
*597 FILLER_0_41_55
*598 FILLER_0_41_57
*599 FILLER_0_41_69
*600 FILLER_0_41_81
*601 FILLER_0_41_93
*602 FILLER_0_42_109
*603 FILLER_0_42_121
*604 FILLER_0_42_133
*605 FILLER_0_42_139
*606 FILLER_0_42_141
*607 FILLER_0_42_145
*608 FILLER_0_42_15
*609 FILLER_0_42_27
*610 FILLER_0_42_29
*611 FILLER_0_42_3
*612 FILLER_0_42_41
*613 FILLER_0_42_53
*614 FILLER_0_42_65
*615 FILLER_0_42_77
*616 FILLER_0_42_83
*617 FILLER_0_42_85
*618 FILLER_0_42_97
*619 FILLER_0_43_105
*620 FILLER_0_43_111
*621 FILLER_0_43_113
*622 FILLER_0_43_125
*623 FILLER_0_43_137
*624 FILLER_0_43_145
*625 FILLER_0_43_15
*626 FILLER_0_43_27
*627 FILLER_0_43_3
*628 FILLER_0_43_39
*629 FILLER_0_43_51
*630 FILLER_0_43_55
*631 FILLER_0_43_57
*632 FILLER_0_43_69
*633 FILLER_0_43_81
*634 FILLER_0_43_93
*635 FILLER_0_44_109
*636 FILLER_0_44_121
*637 FILLER_0_44_133
*638 FILLER_0_44_139
*639 FILLER_0_44_141
*640 FILLER_0_44_15
*641 FILLER_0_44_27
*642 FILLER_0_44_29
*643 FILLER_0_44_3
*644 FILLER_0_44_41
*645 FILLER_0_44_53
*646 FILLER_0_44_65
*647 FILLER_0_44_77
*648 FILLER_0_44_83
*649 FILLER_0_44_85
*650 FILLER_0_44_97
*651 FILLER_0_45_105
*652 FILLER_0_45_111
*653 FILLER_0_45_113
*654 FILLER_0_45_125
*655 FILLER_0_45_137
*656 FILLER_0_45_145
*657 FILLER_0_45_15
*658 FILLER_0_45_27
*659 FILLER_0_45_3
*660 FILLER_0_45_39
*661 FILLER_0_45_51
*662 FILLER_0_45_55
*663 FILLER_0_45_57
*664 FILLER_0_45_69
*665 FILLER_0_45_81
*666 FILLER_0_45_93
*667 FILLER_0_46_109
*668 FILLER_0_46_121
*669 FILLER_0_46_133
*670 FILLER_0_46_139
*671 FILLER_0_46_141
*672 FILLER_0_46_145
*673 FILLER_0_46_15
*674 FILLER_0_46_27
*675 FILLER_0_46_29
*676 FILLER_0_46_3
*677 FILLER_0_46_41
*678 FILLER_0_46_53
*679 FILLER_0_46_65
*680 FILLER_0_46_77
*681 FILLER_0_46_83
*682 FILLER_0_46_85
*683 FILLER_0_46_97
*684 FILLER_0_47_105
*685 FILLER_0_47_111
*686 FILLER_0_47_113
*687 FILLER_0_47_125
*688 FILLER_0_47_137
*689 FILLER_0_47_145
*690 FILLER_0_47_15
*691 FILLER_0_47_27
*692 FILLER_0_47_3
*693 FILLER_0_47_39
*694 FILLER_0_47_51
*695 FILLER_0_47_55
*696 FILLER_0_47_57
*697 FILLER_0_47_69
*698 FILLER_0_47_81
*699 FILLER_0_47_93
*700 FILLER_0_48_109
*701 FILLER_0_48_121
*702 FILLER_0_48_133
*703 FILLER_0_48_139
*704 FILLER_0_48_141
*705 FILLER_0_48_145
*706 FILLER_0_48_15
*707 FILLER_0_48_27
*708 FILLER_0_48_29
*709 FILLER_0_48_3
*710 FILLER_0_48_41
*711 FILLER_0_48_53
*712 FILLER_0_48_65
*713 FILLER_0_48_77
*714 FILLER_0_48_83
*715 FILLER_0_48_85
*716 FILLER_0_48_97
*717 FILLER_0_49_105
*718 FILLER_0_49_111
*719 FILLER_0_49_113
*720 FILLER_0_49_125
*721 FILLER_0_49_137
*722 FILLER_0_49_145
*723 FILLER_0_49_15
*724 FILLER_0_49_27
*725 FILLER_0_49_3
*726 FILLER_0_49_39
*727 FILLER_0_49_51
*728 FILLER_0_49_55
*729 FILLER_0_49_57
*730 FILLER_0_49_69
*731 FILLER_0_49_81
*732 FILLER_0_49_93
*733 FILLER_0_4_109
*734 FILLER_0_4_121
*735 FILLER_0_4_133
*736 FILLER_0_4_139
*737 FILLER_0_4_141
*738 FILLER_0_4_145
*739 FILLER_0_4_15
*740 FILLER_0_4_27
*741 FILLER_0_4_29
*742 FILLER_0_4_3
*743 FILLER_0_4_41
*744 FILLER_0_4_53
*745 FILLER_0_4_65
*746 FILLER_0_4_77
*747 FILLER_0_4_83
*748 FILLER_0_4_85
*749 FILLER_0_4_97
*750 FILLER_0_50_109
*751 FILLER_0_50_121
*752 FILLER_0_50_133
*753 FILLER_0_50_139
*754 FILLER_0_50_141
*755 FILLER_0_50_145
*756 FILLER_0_50_15
*757 FILLER_0_50_27
*758 FILLER_0_50_29
*759 FILLER_0_50_3
*760 FILLER_0_50_41
*761 FILLER_0_50_53
*762 FILLER_0_50_65
*763 FILLER_0_50_77
*764 FILLER_0_50_83
*765 FILLER_0_50_85
*766 FILLER_0_50_97
*767 FILLER_0_51_105
*768 FILLER_0_51_111
*769 FILLER_0_51_113
*770 FILLER_0_51_125
*771 FILLER_0_51_137
*772 FILLER_0_51_15
*773 FILLER_0_51_27
*774 FILLER_0_51_3
*775 FILLER_0_51_39
*776 FILLER_0_51_51
*777 FILLER_0_51_55
*778 FILLER_0_51_57
*779 FILLER_0_51_69
*780 FILLER_0_51_81
*781 FILLER_0_51_93
*782 FILLER_0_52_109
*783 FILLER_0_52_121
*784 FILLER_0_52_133
*785 FILLER_0_52_139
*786 FILLER_0_52_141
*787 FILLER_0_52_145
*788 FILLER_0_52_15
*789 FILLER_0_52_27
*790 FILLER_0_52_29
*791 FILLER_0_52_3
*792 FILLER_0_52_41
*793 FILLER_0_52_53
*794 FILLER_0_52_65
*795 FILLER_0_52_77
*796 FILLER_0_52_83
*797 FILLER_0_52_85
*798 FILLER_0_52_97
*799 FILLER_0_53_105
*800 FILLER_0_53_111
*801 FILLER_0_53_113
*802 FILLER_0_53_125
*803 FILLER_0_53_137
*804 FILLER_0_53_145
*805 FILLER_0_53_15
*806 FILLER_0_53_27
*807 FILLER_0_53_3
*808 FILLER_0_53_39
*809 FILLER_0_53_51
*810 FILLER_0_53_55
*811 FILLER_0_53_57
*812 FILLER_0_53_69
*813 FILLER_0_53_81
*814 FILLER_0_53_93
*815 FILLER_0_54_109
*816 FILLER_0_54_121
*817 FILLER_0_54_133
*818 FILLER_0_54_139
*819 FILLER_0_54_141
*820 FILLER_0_54_145
*821 FILLER_0_54_15
*822 FILLER_0_54_27
*823 FILLER_0_54_29
*824 FILLER_0_54_3
*825 FILLER_0_54_41
*826 FILLER_0_54_53
*827 FILLER_0_54_65
*828 FILLER_0_54_77
*829 FILLER_0_54_83
*830 FILLER_0_54_85
*831 FILLER_0_54_97
*832 FILLER_0_55_105
*833 FILLER_0_55_111
*834 FILLER_0_55_113
*835 FILLER_0_55_125
*836 FILLER_0_55_137
*837 FILLER_0_55_145
*838 FILLER_0_55_15
*839 FILLER_0_55_27
*840 FILLER_0_55_3
*841 FILLER_0_55_39
*842 FILLER_0_55_51
*843 FILLER_0_55_55
*844 FILLER_0_55_57
*845 FILLER_0_55_69
*846 FILLER_0_55_81
*847 FILLER_0_55_93
*848 FILLER_0_56_109
*849 FILLER_0_56_121
*850 FILLER_0_56_133
*851 FILLER_0_56_139
*852 FILLER_0_56_141
*853 FILLER_0_56_145
*854 FILLER_0_56_15
*855 FILLER_0_56_27
*856 FILLER_0_56_29
*857 FILLER_0_56_3
*858 FILLER_0_56_41
*859 FILLER_0_56_53
*860 FILLER_0_56_65
*861 FILLER_0_56_77
*862 FILLER_0_56_83
*863 FILLER_0_56_85
*864 FILLER_0_56_97
*865 FILLER_0_57_105
*866 FILLER_0_57_111
*867 FILLER_0_57_113
*868 FILLER_0_57_125
*869 FILLER_0_57_137
*870 FILLER_0_57_145
*871 FILLER_0_57_15
*872 FILLER_0_57_27
*873 FILLER_0_57_3
*874 FILLER_0_57_39
*875 FILLER_0_57_51
*876 FILLER_0_57_55
*877 FILLER_0_57_57
*878 FILLER_0_57_69
*879 FILLER_0_57_81
*880 FILLER_0_57_93
*881 FILLER_0_58_109
*882 FILLER_0_58_121
*883 FILLER_0_58_133
*884 FILLER_0_58_139
*885 FILLER_0_58_141
*886 FILLER_0_58_15
*887 FILLER_0_58_27
*888 FILLER_0_58_29
*889 FILLER_0_58_3
*890 FILLER_0_58_41
*891 FILLER_0_58_53
*892 FILLER_0_58_65
*893 FILLER_0_58_77
*894 FILLER_0_58_83
*895 FILLER_0_58_85
*896 FILLER_0_58_97
*897 FILLER_0_59_105
*898 FILLER_0_59_111
*899 FILLER_0_59_113
*900 FILLER_0_59_125
*901 FILLER_0_59_137
*902 FILLER_0_59_145
*903 FILLER_0_59_15
*904 FILLER_0_59_27
*905 FILLER_0_59_3
*906 FILLER_0_59_39
*907 FILLER_0_59_51
*908 FILLER_0_59_55
*909 FILLER_0_59_57
*910 FILLER_0_59_69
*911 FILLER_0_59_81
*912 FILLER_0_59_93
*913 FILLER_0_5_105
*914 FILLER_0_5_111
*915 FILLER_0_5_113
*916 FILLER_0_5_125
*917 FILLER_0_5_137
*918 FILLER_0_5_145
*919 FILLER_0_5_15
*920 FILLER_0_5_27
*921 FILLER_0_5_3
*922 FILLER_0_5_39
*923 FILLER_0_5_51
*924 FILLER_0_5_55
*925 FILLER_0_5_57
*926 FILLER_0_5_69
*927 FILLER_0_5_81
*928 FILLER_0_5_93
*929 FILLER_0_60_109
*930 FILLER_0_60_121
*931 FILLER_0_60_133
*932 FILLER_0_60_139
*933 FILLER_0_60_141
*934 FILLER_0_60_145
*935 FILLER_0_60_15
*936 FILLER_0_60_27
*937 FILLER_0_60_29
*938 FILLER_0_60_3
*939 FILLER_0_60_41
*940 FILLER_0_60_53
*941 FILLER_0_60_65
*942 FILLER_0_60_77
*943 FILLER_0_60_83
*944 FILLER_0_60_85
*945 FILLER_0_60_97
*946 FILLER_0_61_105
*947 FILLER_0_61_111
*948 FILLER_0_61_113
*949 FILLER_0_61_125
*950 FILLER_0_61_137
*951 FILLER_0_61_145
*952 FILLER_0_61_15
*953 FILLER_0_61_27
*954 FILLER_0_61_3
*955 FILLER_0_61_39
*956 FILLER_0_61_51
*957 FILLER_0_61_55
*958 FILLER_0_61_57
*959 FILLER_0_61_69
*960 FILLER_0_61_81
*961 FILLER_0_61_93
*962 FILLER_0_62_109
*963 FILLER_0_62_121
*964 FILLER_0_62_133
*965 FILLER_0_62_139
*966 FILLER_0_62_141
*967 FILLER_0_62_145
*968 FILLER_0_62_15
*969 FILLER_0_62_27
*970 FILLER_0_62_29
*971 FILLER_0_62_3
*972 FILLER_0_62_41
*973 FILLER_0_62_53
*974 FILLER_0_62_65
*975 FILLER_0_62_77
*976 FILLER_0_62_83
*977 FILLER_0_62_85
*978 FILLER_0_62_97
*979 FILLER_0_63_105
*980 FILLER_0_63_111
*981 FILLER_0_63_113
*982 FILLER_0_63_125
*983 FILLER_0_63_137
*984 FILLER_0_63_145
*985 FILLER_0_63_15
*986 FILLER_0_63_27
*987 FILLER_0_63_3
*988 FILLER_0_63_39
*989 FILLER_0_63_51
*990 FILLER_0_63_55
*991 FILLER_0_63_57
*992 FILLER_0_63_69
*993 FILLER_0_63_81
*994 FILLER_0_63_93
*995 FILLER_0_64_109
*996 FILLER_0_64_121
*997 FILLER_0_64_133
*998 FILLER_0_64_139
*999 FILLER_0_64_141
*1000 FILLER_0_64_145
*1001 FILLER_0_64_15
*1002 FILLER_0_64_27
*1003 FILLER_0_64_29
*1004 FILLER_0_64_3
*1005 FILLER_0_64_41
*1006 FILLER_0_64_53
*1007 FILLER_0_64_65
*1008 FILLER_0_64_77
*1009 FILLER_0_64_83
*1010 FILLER_0_64_85
*1011 FILLER_0_64_97
*1012 FILLER_0_65_105
*1013 FILLER_0_65_111
*1014 FILLER_0_65_113
*1015 FILLER_0_65_125
*1016 FILLER_0_65_137
*1017 FILLER_0_65_15
*1018 FILLER_0_65_27
*1019 FILLER_0_65_3
*1020 FILLER_0_65_39
*1021 FILLER_0_65_51
*1022 FILLER_0_65_55
*1023 FILLER_0_65_57
*1024 FILLER_0_65_69
*1025 FILLER_0_65_81
*1026 FILLER_0_65_93
*1027 FILLER_0_66_109
*1028 FILLER_0_66_121
*1029 FILLER_0_66_133
*1030 FILLER_0_66_139
*1031 FILLER_0_66_141
*1032 FILLER_0_66_145
*1033 FILLER_0_66_15
*1034 FILLER_0_66_27
*1035 FILLER_0_66_29
*1036 FILLER_0_66_3
*1037 FILLER_0_66_41
*1038 FILLER_0_66_53
*1039 FILLER_0_66_65
*1040 FILLER_0_66_77
*1041 FILLER_0_66_83
*1042 FILLER_0_66_85
*1043 FILLER_0_66_97
*1044 FILLER_0_67_105
*1045 FILLER_0_67_111
*1046 FILLER_0_67_113
*1047 FILLER_0_67_125
*1048 FILLER_0_67_137
*1049 FILLER_0_67_145
*1050 FILLER_0_67_15
*1051 FILLER_0_67_27
*1052 FILLER_0_67_3
*1053 FILLER_0_67_39
*1054 FILLER_0_67_51
*1055 FILLER_0_67_55
*1056 FILLER_0_67_57
*1057 FILLER_0_67_69
*1058 FILLER_0_67_81
*1059 FILLER_0_67_93
*1060 FILLER_0_68_109
*1061 FILLER_0_68_121
*1062 FILLER_0_68_133
*1063 FILLER_0_68_139
*1064 FILLER_0_68_141
*1065 FILLER_0_68_145
*1066 FILLER_0_68_15
*1067 FILLER_0_68_27
*1068 FILLER_0_68_29
*1069 FILLER_0_68_3
*1070 FILLER_0_68_41
*1071 FILLER_0_68_53
*1072 FILLER_0_68_65
*1073 FILLER_0_68_77
*1074 FILLER_0_68_83
*1075 FILLER_0_68_85
*1076 FILLER_0_68_97
*1077 FILLER_0_69_105
*1078 FILLER_0_69_111
*1079 FILLER_0_69_113
*1080 FILLER_0_69_125
*1081 FILLER_0_69_137
*1082 FILLER_0_69_145
*1083 FILLER_0_69_15
*1084 FILLER_0_69_27
*1085 FILLER_0_69_3
*1086 FILLER_0_69_39
*1087 FILLER_0_69_51
*1088 FILLER_0_69_55
*1089 FILLER_0_69_57
*1090 FILLER_0_69_69
*1091 FILLER_0_69_81
*1092 FILLER_0_69_93
*1093 FILLER_0_6_109
*1094 FILLER_0_6_121
*1095 FILLER_0_6_133
*1096 FILLER_0_6_139
*1097 FILLER_0_6_141
*1098 FILLER_0_6_145
*1099 FILLER_0_6_15
*1100 FILLER_0_6_27
*1101 FILLER_0_6_29
*1102 FILLER_0_6_3
*1103 FILLER_0_6_41
*1104 FILLER_0_6_53
*1105 FILLER_0_6_65
*1106 FILLER_0_6_77
*1107 FILLER_0_6_83
*1108 FILLER_0_6_85
*1109 FILLER_0_6_97
*1110 FILLER_0_70_109
*1111 FILLER_0_70_121
*1112 FILLER_0_70_133
*1113 FILLER_0_70_139
*1114 FILLER_0_70_141
*1115 FILLER_0_70_145
*1116 FILLER_0_70_15
*1117 FILLER_0_70_27
*1118 FILLER_0_70_29
*1119 FILLER_0_70_3
*1120 FILLER_0_70_41
*1121 FILLER_0_70_53
*1122 FILLER_0_70_65
*1123 FILLER_0_70_77
*1124 FILLER_0_70_83
*1125 FILLER_0_70_85
*1126 FILLER_0_70_97
*1127 FILLER_0_71_105
*1128 FILLER_0_71_111
*1129 FILLER_0_71_113
*1130 FILLER_0_71_125
*1131 FILLER_0_71_137
*1132 FILLER_0_71_145
*1133 FILLER_0_71_15
*1134 FILLER_0_71_27
*1135 FILLER_0_71_3
*1136 FILLER_0_71_39
*1137 FILLER_0_71_51
*1138 FILLER_0_71_55
*1139 FILLER_0_71_57
*1140 FILLER_0_71_69
*1141 FILLER_0_71_81
*1142 FILLER_0_71_93
*1143 FILLER_0_72_109
*1144 FILLER_0_72_121
*1145 FILLER_0_72_133
*1146 FILLER_0_72_139
*1147 FILLER_0_72_141
*1148 FILLER_0_72_15
*1149 FILLER_0_72_27
*1150 FILLER_0_72_29
*1151 FILLER_0_72_3
*1152 FILLER_0_72_41
*1153 FILLER_0_72_53
*1154 FILLER_0_72_65
*1155 FILLER_0_72_77
*1156 FILLER_0_72_83
*1157 FILLER_0_72_85
*1158 FILLER_0_72_97
*1159 FILLER_0_73_105
*1160 FILLER_0_73_111
*1161 FILLER_0_73_113
*1162 FILLER_0_73_125
*1163 FILLER_0_73_137
*1164 FILLER_0_73_145
*1165 FILLER_0_73_15
*1166 FILLER_0_73_27
*1167 FILLER_0_73_3
*1168 FILLER_0_73_39
*1169 FILLER_0_73_51
*1170 FILLER_0_73_55
*1171 FILLER_0_73_57
*1172 FILLER_0_73_69
*1173 FILLER_0_73_81
*1174 FILLER_0_73_93
*1175 FILLER_0_74_109
*1176 FILLER_0_74_121
*1177 FILLER_0_74_133
*1178 FILLER_0_74_139
*1179 FILLER_0_74_141
*1180 FILLER_0_74_145
*1181 FILLER_0_74_15
*1182 FILLER_0_74_27
*1183 FILLER_0_74_29
*1184 FILLER_0_74_3
*1185 FILLER_0_74_41
*1186 FILLER_0_74_53
*1187 FILLER_0_74_65
*1188 FILLER_0_74_77
*1189 FILLER_0_74_83
*1190 FILLER_0_74_85
*1191 FILLER_0_74_97
*1192 FILLER_0_75_105
*1193 FILLER_0_75_111
*1194 FILLER_0_75_113
*1195 FILLER_0_75_125
*1196 FILLER_0_75_137
*1197 FILLER_0_75_145
*1198 FILLER_0_75_15
*1199 FILLER_0_75_27
*1200 FILLER_0_75_3
*1201 FILLER_0_75_39
*1202 FILLER_0_75_51
*1203 FILLER_0_75_55
*1204 FILLER_0_75_57
*1205 FILLER_0_75_69
*1206 FILLER_0_75_81
*1207 FILLER_0_75_93
*1208 FILLER_0_76_109
*1209 FILLER_0_76_121
*1210 FILLER_0_76_133
*1211 FILLER_0_76_139
*1212 FILLER_0_76_141
*1213 FILLER_0_76_145
*1214 FILLER_0_76_15
*1215 FILLER_0_76_27
*1216 FILLER_0_76_29
*1217 FILLER_0_76_3
*1218 FILLER_0_76_41
*1219 FILLER_0_76_53
*1220 FILLER_0_76_65
*1221 FILLER_0_76_77
*1222 FILLER_0_76_83
*1223 FILLER_0_76_85
*1224 FILLER_0_76_97
*1225 FILLER_0_77_105
*1226 FILLER_0_77_111
*1227 FILLER_0_77_113
*1228 FILLER_0_77_125
*1229 FILLER_0_77_137
*1230 FILLER_0_77_145
*1231 FILLER_0_77_15
*1232 FILLER_0_77_27
*1233 FILLER_0_77_3
*1234 FILLER_0_77_39
*1235 FILLER_0_77_51
*1236 FILLER_0_77_55
*1237 FILLER_0_77_57
*1238 FILLER_0_77_69
*1239 FILLER_0_77_81
*1240 FILLER_0_77_93
*1241 FILLER_0_78_109
*1242 FILLER_0_78_121
*1243 FILLER_0_78_133
*1244 FILLER_0_78_139
*1245 FILLER_0_78_141
*1246 FILLER_0_78_145
*1247 FILLER_0_78_15
*1248 FILLER_0_78_27
*1249 FILLER_0_78_29
*1250 FILLER_0_78_3
*1251 FILLER_0_78_41
*1252 FILLER_0_78_53
*1253 FILLER_0_78_65
*1254 FILLER_0_78_77
*1255 FILLER_0_78_83
*1256 FILLER_0_78_85
*1257 FILLER_0_78_97
*1258 FILLER_0_79_109
*1259 FILLER_0_79_113
*1260 FILLER_0_79_125
*1261 FILLER_0_79_137
*1262 FILLER_0_79_141
*1263 FILLER_0_79_15
*1264 FILLER_0_79_27
*1265 FILLER_0_79_29
*1266 FILLER_0_79_3
*1267 FILLER_0_79_41
*1268 FILLER_0_79_53
*1269 FILLER_0_79_57
*1270 FILLER_0_79_69
*1271 FILLER_0_79_81
*1272 FILLER_0_79_85
*1273 FILLER_0_79_97
*1274 FILLER_0_7_105
*1275 FILLER_0_7_111
*1276 FILLER_0_7_113
*1277 FILLER_0_7_125
*1278 FILLER_0_7_137
*1279 FILLER_0_7_145
*1280 FILLER_0_7_15
*1281 FILLER_0_7_27
*1282 FILLER_0_7_3
*1283 FILLER_0_7_39
*1284 FILLER_0_7_51
*1285 FILLER_0_7_55
*1286 FILLER_0_7_57
*1287 FILLER_0_7_69
*1288 FILLER_0_7_81
*1289 FILLER_0_7_93
*1290 FILLER_0_8_109
*1291 FILLER_0_8_121
*1292 FILLER_0_8_133
*1293 FILLER_0_8_139
*1294 FILLER_0_8_141
*1295 FILLER_0_8_145
*1296 FILLER_0_8_15
*1297 FILLER_0_8_27
*1298 FILLER_0_8_29
*1299 FILLER_0_8_3
*1300 FILLER_0_8_41
*1301 FILLER_0_8_53
*1302 FILLER_0_8_65
*1303 FILLER_0_8_77
*1304 FILLER_0_8_83
*1305 FILLER_0_8_85
*1306 FILLER_0_8_97
*1307 FILLER_0_9_105
*1308 FILLER_0_9_111
*1309 FILLER_0_9_113
*1310 FILLER_0_9_125
*1311 FILLER_0_9_137
*1312 FILLER_0_9_15
*1313 FILLER_0_9_27
*1314 FILLER_0_9_3
*1315 FILLER_0_9_39
*1316 FILLER_0_9_51
*1317 FILLER_0_9_55
*1318 FILLER_0_9_57
*1319 FILLER_0_9_69
*1320 FILLER_0_9_81
*1321 FILLER_0_9_93
*1322 PHY_0
*1323 PHY_1
*1324 PHY_10
*1325 PHY_100
*1326 PHY_101
*1327 PHY_102
*1328 PHY_103
*1329 PHY_104
*1330 PHY_105
*1331 PHY_106
*1332 PHY_107
*1333 PHY_108
*1334 PHY_109
*1335 PHY_11
*1336 PHY_110
*1337 PHY_111
*1338 PHY_112
*1339 PHY_113
*1340 PHY_114
*1341 PHY_115
*1342 PHY_116
*1343 PHY_117
*1344 PHY_118
*1345 PHY_119
*1346 PHY_12
*1347 PHY_120
*1348 PHY_121
*1349 PHY_122
*1350 PHY_123
*1351 PHY_124
*1352 PHY_125
*1353 PHY_126
*1354 PHY_127
*1355 PHY_128
*1356 PHY_129
*1357 PHY_13
*1358 PHY_130
*1359 PHY_131
*1360 PHY_132
*1361 PHY_133
*1362 PHY_134
*1363 PHY_135
*1364 PHY_136
*1365 PHY_137
*1366 PHY_138
*1367 PHY_139
*1368 PHY_14
*1369 PHY_140
*1370 PHY_141
*1371 PHY_142
*1372 PHY_143
*1373 PHY_144
*1374 PHY_145
*1375 PHY_146
*1376 PHY_147
*1377 PHY_148
*1378 PHY_149
*1379 PHY_15
*1380 PHY_150
*1381 PHY_151
*1382 PHY_152
*1383 PHY_153
*1384 PHY_154
*1385 PHY_155
*1386 PHY_156
*1387 PHY_157
*1388 PHY_158
*1389 PHY_159
*1390 PHY_16
*1391 PHY_17
*1392 PHY_18
*1393 PHY_19
*1394 PHY_2
*1395 PHY_20
*1396 PHY_21
*1397 PHY_22
*1398 PHY_23
*1399 PHY_24
*1400 PHY_25
*1401 PHY_26
*1402 PHY_27
*1403 PHY_28
*1404 PHY_29
*1405 PHY_3
*1406 PHY_30
*1407 PHY_31
*1408 PHY_32
*1409 PHY_33
*1410 PHY_34
*1411 PHY_35
*1412 PHY_36
*1413 PHY_37
*1414 PHY_38
*1415 PHY_39
*1416 PHY_4
*1417 PHY_40
*1418 PHY_41
*1419 PHY_42
*1420 PHY_43
*1421 PHY_44
*1422 PHY_45
*1423 PHY_46
*1424 PHY_47
*1425 PHY_48
*1426 PHY_49
*1427 PHY_5
*1428 PHY_50
*1429 PHY_51
*1430 PHY_52
*1431 PHY_53
*1432 PHY_54
*1433 PHY_55
*1434 PHY_56
*1435 PHY_57
*1436 PHY_58
*1437 PHY_59
*1438 PHY_6
*1439 PHY_60
*1440 PHY_61
*1441 PHY_62
*1442 PHY_63
*1443 PHY_64
*1444 PHY_65
*1445 PHY_66
*1446 PHY_67
*1447 PHY_68
*1448 PHY_69
*1449 PHY_7
*1450 PHY_70
*1451 PHY_71
*1452 PHY_72
*1453 PHY_73
*1454 PHY_74
*1455 PHY_75
*1456 PHY_76
*1457 PHY_77
*1458 PHY_78
*1459 PHY_79
*1460 PHY_8
*1461 PHY_80
*1462 PHY_81
*1463 PHY_82
*1464 PHY_83
*1465 PHY_84
*1466 PHY_85
*1467 PHY_86
*1468 PHY_87
*1469 PHY_88
*1470 PHY_89
*1471 PHY_9
*1472 PHY_90
*1473 PHY_91
*1474 PHY_92
*1475 PHY_93
*1476 PHY_94
*1477 PHY_95
*1478 PHY_96
*1479 PHY_97
*1480 PHY_98
*1481 PHY_99
*1482 TAP_160
*1483 TAP_161
*1484 TAP_162
*1485 TAP_163
*1486 TAP_164
*1487 TAP_165
*1488 TAP_166
*1489 TAP_167
*1490 TAP_168
*1491 TAP_169
*1492 TAP_170
*1493 TAP_171
*1494 TAP_172
*1495 TAP_173
*1496 TAP_174
*1497 TAP_175
*1498 TAP_176
*1499 TAP_177
*1500 TAP_178
*1501 TAP_179
*1502 TAP_180
*1503 TAP_181
*1504 TAP_182
*1505 TAP_183
*1506 TAP_184
*1507 TAP_185
*1508 TAP_186
*1509 TAP_187
*1510 TAP_188
*1511 TAP_189
*1512 TAP_190
*1513 TAP_191
*1514 TAP_192
*1515 TAP_193
*1516 TAP_194
*1517 TAP_195
*1518 TAP_196
*1519 TAP_197
*1520 TAP_198
*1521 TAP_199
*1522 TAP_200
*1523 TAP_201
*1524 TAP_202
*1525 TAP_203
*1526 TAP_204
*1527 TAP_205
*1528 TAP_206
*1529 TAP_207
*1530 TAP_208
*1531 TAP_209
*1532 TAP_210
*1533 TAP_211
*1534 TAP_212
*1535 TAP_213
*1536 TAP_214
*1537 TAP_215
*1538 TAP_216
*1539 TAP_217